2024_89_CemigReconfigurationCases/1_AlimsCemig/BHMR09/BHMR09AnualA.dss
clear
new circuit.alimBHMR09 bus1=BMT154853662,basekv=13.800000000,pu=1.040000000,r1=0,x1=0.0001

Redirect ..\0PermRes\NovasCurvasTxt\CurvasDeCargaDU.dss
Redirect ..\0PermRes\Condutores.dss
Redirect BHMR09SegmentosMT.dss
Redirect BHMR09ChavesMT.dss
Redirect BHMR09Transformadores.dss
Redirect BHMR09SegmentosBT.dss
Redirect BHMR09Ramais.dss
Redirect BHMR09CargaMT_Dez.dss
Redirect BHMR09CargaBT_Dez.dss
Redirect BHMR09CapacitorMT.dss

new energymeter.carga element=line.SMT_4765783,terminal=1

Set voltagebases=[13.800000000 0.24 0.22]
CalcVoltageBases
Set MaxIter = 150
Set MaxControlIter = 40

! Solve mode=daily,hour=0,number=24,stepsize=1h


! BusCoords BHMR09CoordMT.csv
ClearBusMarkers
! AddBusMarker Bus= ,code=12,color=Green,size=5 ! substation
! AddBusMarker bus= ,code=27,color=Green,size=3 ! NC switch in Green
! AddBusMarker bus= ,code=27,color=Yellow,size=3 ! Yellow circle = NO switch to be closed
! plot circuit quantity=power,dots=n,labels=n,subs=y,showloops=n,C1=Blue,C2=Blue,C3=Red,R2=0.95,R3=0.90