2024_89_CemigReconfigurationCases/1_AlimsCemig/BHMR09/BHMR09SegmentosMT.dss
new line.SMT_11056032 bus1=BMT99097854.1.2.3,bus2=BMT7280051B.1.2.3,Phases=3,Linecode=CAB103_3_3_3,Length=0.011665000,Units=km
new line.SMT_11056039 bus1=BMT7280051B.1.2.3,bus2=BMT1844438B.1.2.3,Phases=3,Linecode=CAB103_3_3_3,Length=0.013605000,Units=km
new line.SMT_11056088 bus1=BMT99095313.1.2.3,bus2=BMT7280079B.1.2.3,Phases=3,Linecode=CAB108_3_3_3,Length=0.019930000,Units=km
new line.SMT_11056095 bus1=BMT7280079B.1.2.3,bus2=BMT99095320.1.2.3,Phases=3,Linecode=CAB108_3_3_3,Length=0.006327000,Units=km
new line.SMT_11417421 bus1=BMT148407806.1.2.3,bus2=BMT148407808.1.2.3,Phases=3,Linecode=CABA06_3_3_3,Length=0.032536000,Units=km
new line.SMT_11417428 bus1=BMT148407808.1.2.3,bus2=BMT148407809.1.2.3,Phases=3,Linecode=CABA06_3_3_3,Length=0.027792000,Units=km
new line.SMT_12117080 bus1=BMT148407807.1.2.3,bus2=BMT2047893B.1.2.3,Phases=3,Linecode=CABA06_3_3_3,Length=0.026180000,Units=km
new line.SMT_12117087 bus1=BMT2047893B.1.2.3,bus2=BMT2047907B.1.2.3,Phases=3,Linecode=CABA06_3_3_3,Length=0.021938000,Units=km
new line.SMT_12117098 bus1=BMT2047893B.1.2.3,bus2=BMT2035993B.1.2.3,Phases=3,Linecode=CABA06_3_3_3,Length=0.013896000,Units=km
new line.SMT_12117100 bus1=BMT2035993B.1.2.3,bus2=BMT148407810.1.2.3,Phases=3,Linecode=CABA06_3_3_3,Length=0.025814000,Units=km
new line.SMT_12301633 bus1=BMT1791959B.1.2.3,bus2=BMT8903403B.1.2.3,Phases=3,Linecode=CAB108_3_3_3,Length=0.010299000,Units=km
new line.SMT_12301634 bus1=BMT8903403B.1.2.3,bus2=BMT154854722.1.2.3,Phases=3,Linecode=CAB108_3_3_3,Length=0.020597000,Units=km
new line.SMT_12339212 bus1=BMT177033924.1.2.3,bus2=BMT8941767B.1.2.3,Phases=3,Linecode=CABA06_3_3_3,Length=0.010299000,Units=km
new line.SMT_12339213 bus1=BMT8941767B.1.2.3,bus2=BMT177033926.1.2.3,Phases=3,Linecode=CABA06_3_3_3,Length=0.015269000,Units=km
new line.SMT_2946959 bus1=BMT149875085.1.2.3,bus2=BMT1871318B.1.2.3,Phases=3,Linecode=CAB108_3_3_3,Length=0.016558000,Units=km
new line.SMT_2946966 bus1=BMT149875085.1.2.3,bus2=BMT149875087.1.2.3,Phases=3,Linecode=CAB103_3_3_3,Length=0.033430000,Units=km
new line.SMT_2946994 bus1=BMT1773052B.1.2.3,bus2=BMT149875085.1.2.3,Phases=3,Linecode=CAB108_3_3_3,Length=0.027081000,Units=km
new line.SMT_2947015 bus1=BMT149875084.1.2.3,bus2=BMT1773052B.1.2.3,Phases=3,Linecode=CAB108_3_3_3,Length=0.028451000,Units=km
new line.SMT_2947036 bus1=BMT1773066B.1.2.3,bus2=BMT99095152.1.2.3,Phases=3,Linecode=CAB108_3_3_3,Length=0.026690000,Units=km
new line.SMT_2947064 bus1=BMT2787100.1.2.3,bus2=BMT1773066B.1.2.3,Phases=3,Linecode=CAB108_3_3_3,Length=0.034534000,Units=km
new line.SMT_2947092 bus1=BMT99095145.1.2.3,bus2=BMT2787100.1.2.3,Phases=3,Linecode=CAB108_3_3_3,Length=0.029282000,Units=km
new line.SMT_2947113 bus1=BMT1773087B.1.2.3,bus2=BMT99095145.1.2.3,Phases=3,Linecode=CAB108_3_3_3,Length=0.037493000,Units=km
new line.SMT_2947134 bus1=BMT1773094B.1.2.3,bus2=BMT1773087B.1.2.3,Phases=3,Linecode=CAB108_3_3_3,Length=0.031409000,Units=km
new line.SMT_2947162 bus1=BMT99095138.1.2.3,bus2=BMT1773094B.1.2.3,Phases=3,Linecode=CAB108_3_3_3,Length=0.029419000,Units=km
new line.SMT_2947176 bus1=BMT1773108B.1.2.3,bus2=BMT99095131.1.2.3,Phases=3,Linecode=CAB108_3_3_3,Length=0.032704000,Units=km
new line.SMT_2947211 bus1=BMT154854724.1.2.3,bus2=BMT1773108B.1.2.3,Phases=3,Linecode=CAB108_3_3_3,Length=0.026634000,Units=km
new line.SMT_2947232 bus1=BMT1773129B.1.2.3,bus2=BMT154854724.1.2.3,Phases=3,Linecode=CAB108_3_3_3,Length=0.029163000,Units=km
new line.SMT_2947260 bus1=BMT1773136B.1.2.3,bus2=BMT1773129B.1.2.3,Phases=3,Linecode=CAB108_3_3_3,Length=0.030025000,Units=km
new line.SMT_2947281 bus1=BMT1773143B.1.2.3,bus2=BMT1773136B.1.2.3,Phases=3,Linecode=CAB108_3_3_3,Length=0.027792000,Units=km
new line.SMT_2947316 bus1=BMT1773150B.1.2.3,bus2=BMT1773143B.1.2.3,Phases=3,Linecode=CAB108_3_3_3,Length=0.030895000,Units=km
new line.SMT_3000306 bus1=BMT154854723.1.2.3,bus2=BMT1773150B.1.2.3,Phases=3,Linecode=CAB108_3_3_3,Length=0.031393000,Units=km
new line.SMT_3000341 bus1=BMT1791945C.1.2.3,bus2=BMT154854723.1.2.3,Phases=3,Linecode=CAB108_3_3_3,Length=0.030025000,Units=km
new line.SMT_3000369 bus1=BMT154854722.1.2.3,bus2=BMT1791945C.1.2.3,Phases=3,Linecode=CAB108_3_3_3,Length=0.031393000,Units=km
new line.SMT_3000439 bus1=BMT1791966B.1.2.3,bus2=BMT1791959B.1.2.3,Phases=3,Linecode=CAB108_3_3_3,Length=0.031773000,Units=km
new line.SMT_3095723 bus1=BMT1825349B.1.2.3,bus2=BMT170043699.1.2.3,Phases=3,Linecode=CAB103_3_3_3,Length=0.039010000,Units=km
new line.SMT_3095758 bus1=BMT1825356B.1.2.3,bus2=BMT1825349B.1.2.3,Phases=3,Linecode=CAB103_3_3_3,Length=0.028008000,Units=km
new line.SMT_3095842 bus1=BMT1825384B.1.2.3,bus2=BMT2058953B.1.2.3,Phases=3,Linecode=CABA08_3_3_3,Length=0.039215000,Units=km
new line.SMT_3095905 bus1=BMT99097049.1.2.3,bus2=BMT99097056.1.2.3,Phases=3,Linecode=CAB103_3_3_3,Length=0.022854000,Units=km
new line.SMT_3095961 bus1=BMT99097056.1.2.3,bus2=BMT99097063.1.2.3,Phases=3,Linecode=CAB103_3_3_3,Length=0.039608000,Units=km
new line.SMT_3095968 bus1=BMT99097098.1.2.3,bus2=BMT99097105.1.2.3,Phases=3,Linecode=CAB103_3_3_3,Length=0.038338000,Units=km
new line.SMT_3096003 bus1=BMT179203795.1.2.3,bus2=BMT1825384B.1.2.3,Phases=3,Linecode=CABA08_3_3_3,Length=0.036231000,Units=km
new line.SMT_3096171 bus1=BMT99097084.1.2.3,bus2=BMT99097091.1.2.3,Phases=3,Linecode=CAB103_3_3_3,Length=0.024705000,Units=km
new line.SMT_3096185 bus1=BMT1825510B.1.2.3,bus2=BMT179203796.1.2.3,Phases=3,Linecode=CABA08_3_3_3,Length=0.030158000,Units=km
new line.SMT_11582698 bus1=BMT107490245.1.2.3,bus2=BMT107490273.1.2.3,Phases=3,Linecode=CAB902_4_3_3,Length=0.038598000,Units=km
new line.SMT_11975881 bus1=BMT133255593.1.2.3,bus2=BMT133255600.1.2.3,Phases=3,Linecode=CAB103_3_3_3,Length=0.027666000,Units=km
new line.SMT_11975888 bus1=BMT133255600.1.2.3,bus2=BMT99095754.1.2.3,Phases=3,Linecode=CAB103_3_3_3,Length=0.017469000,Units=km
new line.SMT_12160580 bus1=BMT149875091.1.2.3,bus2=BMT1860972B.1.2.3,Phases=3,Linecode=CABA06_3_3_3,Length=0.031024000,Units=km
new line.SMT_12160581 bus1=BMT1860972B.1.2.3,bus2=BMT1860951B.1.2.3,Phases=3,Linecode=CABA06_3_3_3,Length=0.037172000,Units=km
new line.SMT_12160582 bus1=BMT1860951B.1.2.3,bus2=BMT149875092.1.2.3,Phases=3,Linecode=CABA06_3_3_3,Length=0.042059000,Units=km
new line.SMT_3101806 bus1=BMT1827582B.1.2.3,bus2=BMT151389297.1.2.3,Phases=3,Linecode=CAB103_3_3_3,Length=0.031836000,Units=km
new line.SMT_3101827 bus1=BMT1827589B.1.2.3,bus2=BMT1827582B.1.2.3,Phases=3,Linecode=CAB103_3_3_3,Length=0.033950000,Units=km
new line.SMT_3101848 bus1=BMT151389296.1.2.3,bus2=BMT1827589B.1.2.3,Phases=3,Linecode=CAB103_3_3_3,Length=0.031121000,Units=km
new line.SMT_3101876 bus1=BMT151389295.1.2.3,bus2=BMT1827617B.1.2.3,Phases=3,Linecode=CAB103_3_3_3,Length=0.028008000,Units=km
new line.SMT_3101897 bus1=BMT1827617B.1.2.3,bus2=BMT1827624B.1.2.3,Phases=3,Linecode=CAB103_3_3_3,Length=0.028008000,Units=km
new line.SMT_3101911 bus1=BMT1827624B.1.2.3,bus2=BMT1827631B.1.2.3,Phases=3,Linecode=CAB103_3_3_3,Length=0.026007000,Units=km
new line.SMT_3102296 bus1=BMT1827764B.1.2.3,bus2=BMT2072603B.1.2.3,Phases=3,Linecode=CAB103_3_3_3,Length=0.037706000,Units=km
new line.SMT_3102380 bus1=BMT1827799B.1.2.3,bus2=BMT1827764B.1.2.3,Phases=3,Linecode=CAB103_3_3_3,Length=0.038637000,Units=km
new line.SMT_3102415 bus1=BMT1827813B.1.2.3,bus2=BMT148822199.1.2.3,Phases=3,Linecode=CAB103_3_3_3,Length=0.030471000,Units=km
new line.SMT_3102436 bus1=BMT1827827B.1.2.3,bus2=BMT1827799B.1.2.3,Phases=3,Linecode=CAB103_3_3_3,Length=0.032704000,Units=km
new line.SMT_3102450 bus1=BMT1827834B.1.2.3,bus2=BMT1827813B.1.2.3,Phases=3,Linecode=CAB103_3_3_3,Length=0.036259000,Units=km
new line.SMT_3103024 bus1=BMT99096762.1.2.3,bus2=BMT99096769.1.2.3,Phases=3,Linecode=CABA08_3_3_3,Length=0.033847000,Units=km
new line.SMT_3103031 bus1=BMT150903131.1.2.3,bus2=BMT1828100B.1.2.3,Phases=3,Linecode=CAB103_3_3_3,Length=0.029419000,Units=km
new line.SMT_3103052 bus1=BMT152082972.1.2.3,bus2=BMT99096762.1.2.3,Phases=3,Linecode=CABA08_3_3_3,Length=0.023093000,Units=km
new line.SMT_3103073 bus1=BMT152082971.1.2.3,bus2=BMT149353725.1.2.3,Phases=3,Linecode=CAB108_3_3_3,Length=0.034214000,Units=km
new line.SMT_3103080 bus1=BMT152082971.1.2.3,bus2=BMT152082972.1.2.3,Phases=3,Linecode=CABA08_3_3_3,Length=0.022810000,Units=km
new line.SMT_3103087 bus1=BMT152082971.1.2.3,bus2=BMT152082973.1.2.3,Phases=3,Linecode=CABA06_3_3_3,Length=0.018033000,Units=km
new line.SMT_3103101 bus1=BMT1828100B.1.2.3,bus2=BMT1828121B.1.2.3,Phases=3,Linecode=CAB103_3_3_3,Length=0.030008000,Units=km
new line.SMT_3103129 bus1=BMT152082970.1.2.3,bus2=BMT152082971.1.2.3,Phases=3,Linecode=CAB108_3_3_3,Length=0.026026000,Units=km
new line.SMT_3103143 bus1=BMT1828121B.1.2.3,bus2=BMT1835282B.1.2.3,Phases=3,Linecode=CAB103_3_3_3,Length=0.028608000,Units=km
new line.SMT_3103157 bus1=BMT1828128B.1.2.3,bus2=BMT99096720.1.2.3,Phases=3,Linecode=CAB108_3_3_3,Length=0.023607000,Units=km
new line.SMT_3103171 bus1=BMT1828135B.1.2.3,bus2=BMT1828128B.1.2.3,Phases=3,Linecode=CAB108_3_3_3,Length=0.037212000,Units=km
new line.SMT_3103185 bus1=BMT1828142B.1.2.3,bus2=BMT1828135B.1.2.3,Phases=3,Linecode=CAB108_3_3_3,Length=0.029419000,Units=km
new line.SMT_3105866 bus1=BMT1829157B.1.2.3,bus2=BMT177033918.1.2.3,Phases=3,Linecode=CAB103_3_3_3,Length=0.040815000,Units=km
new line.SMT_3105894 bus1=BMT1829164B.1.2.3,bus2=BMT1829157B.1.2.3,Phases=3,Linecode=CAB103_3_3_3,Length=0.033024000,Units=km
new line.SMT_3107252 bus1=BMT1829626B.1.2.3,bus2=BMT177033922.1.2.3,Phases=3,Linecode=CABA06_3_3_3,Length=0.034995000,Units=km
new line.SMT_3107280 bus1=BMT1829640B.1.2.3,bus2=BMT1829626B.1.2.3,Phases=3,Linecode=CABA06_3_3_3,Length=0.033624000,Units=km
new line.SMT_3107343 bus1=BMT1829668B.1.2.3,bus2=BMT1829640B.1.2.3,Phases=3,Linecode=CABA06_3_3_3,Length=0.034679000,Units=km
new line.SMT_3107392 bus1=BMT177033920.1.2.3,bus2=BMT2647870B.1.2.3,Phases=3,Linecode=CABA06_3_3_3,Length=0.040815000,Units=km
new line.SMT_3107413 bus1=BMT177033919.1.2.3,bus2=BMT177033920.1.2.3,Phases=3,Linecode=CAB103_3_3_3,Length=0.035478000,Units=km
new line.SMT_3107420 bus1=BMT177033919.1.2.3,bus2=BMT1836381B.1.2.3,Phases=3,Linecode=CAB103_3_3_3,Length=0.034214000,Units=km
new line.SMT_3107448 bus1=BMT1829703B.1.2.3,bus2=BMT177033919.1.2.3,Phases=3,Linecode=CAB103_3_3_3,Length=0.031057000,Units=km
new line.SMT_3108120 bus1=BMT1830025B.1.2.3,bus2=BMT1827834B.1.2.3,Phases=3,Linecode=CAB103_3_3_3,Length=0.031393000,Units=km
new line.SMT_3108190 bus1=BMT148822194.1.2.3,bus2=BMT1830025B.1.2.3,Phases=3,Linecode=CAB103_3_3_3,Length=0.034938000,Units=km
new line.SMT_3108218 bus1=BMT148822193.1.2.3,bus2=BMT148822194.1.2.3,Phases=3,Linecode=CAB103_3_3_3,Length=0.043875000,Units=km
new line.SMT_3108225 bus1=BMT148822193.1.2.3,bus2=BMT1830074B.1.2.3,Phases=3,Linecode=CAB103_3_3_3,Length=0.034549000,Units=km
new line.SMT_3108246 bus1=BMT1830074B.1.2.3,bus2=BMT148822195.1.2.3,Phases=3,Linecode=CAB103_3_3_3,Length=0.039010000,Units=km
new line.SMT_3096304 bus1=BMT1825552B.1.2.3,bus2=BMT1825510B.1.2.3,Phases=3,Linecode=CABA08_3_3_3,Length=0.030274000,Units=km
new line.SMT_3096325 bus1=BMT1825566B.1.2.3,bus2=BMT1825552B.1.2.3,Phases=3,Linecode=CABA08_3_3_3,Length=0.021030000,Units=km
new line.SMT_3096346 bus1=BMT179203797.1.2.3,bus2=BMT1825566B.1.2.3,Phases=3,Linecode=CABA08_3_3_3,Length=0.037600000,Units=km
new line.SMT_3096353 bus1=BMT179203797.1.2.3,bus2=BMT99097182.1.2.3,Phases=3,Linecode=CABA06_3_3_3,Length=0.023437000,Units=km
new line.SMT_3096381 bus1=BMT179203798.1.2.3,bus2=BMT179203797.1.2.3,Phases=3,Linecode=CABA08_3_3_3,Length=0.024193000,Units=km
new line.SMT_3096395 bus1=BMT1825587B.1.2.3,bus2=BMT179203798.1.2.3,Phases=3,Linecode=CABA08_3_3_3,Length=0.027792000,Units=km
new line.SMT_3096416 bus1=BMT1825594B.1.2.3,bus2=BMT1825587B.1.2.3,Phases=3,Linecode=CABA08_3_3_3,Length=0.027810000,Units=km
new line.SMT_3096437 bus1=BMT1825601B.1.2.3,bus2=BMT1825594B.1.2.3,Phases=3,Linecode=CABA08_3_3_3,Length=0.031915000,Units=km
new line.SMT_3096458 bus1=BMT1825608B.1.2.3,bus2=BMT1825601B.1.2.3,Phases=3,Linecode=CABA08_3_3_3,Length=0.032658000,Units=km
new line.SMT_3096472 bus1=BMT179203799.1.2.3,bus2=BMT1825608B.1.2.3,Phases=3,Linecode=CABA08_3_3_3,Length=0.032320000,Units=km
new line.SMT_3097683 bus1=BMT1826098B.1.2.3,bus2=BMT1826105B.1.2.3,Phases=3,Linecode=CAB103_3_3_3,Length=0.019422000,Units=km
new line.SMT_3097704 bus1=BMT1826105B.1.2.3,bus2=BMT152237649.1.2.3,Phases=3,Linecode=CAB103_3_3_3,Length=0.038959000,Units=km
new line.SMT_3100203 bus1=BMT152237647.1.2.3,bus2=BMT152237648.1.2.3,Phases=3,Linecode=CAB103_3_3_3,Length=0.019855000,Units=km
new line.SMT_3100238 bus1=BMT152237648.1.2.3,bus2=BMT1826994B.1.2.3,Phases=3,Linecode=CAB103_3_3_3,Length=0.018606000,Units=km
new line.SMT_3100259 bus1=BMT1826994B.1.2.3,bus2=BMT1826098B.1.2.3,Phases=3,Linecode=CAB103_3_3_3,Length=0.017034000,Units=km
new line.SMT_3149938 bus1=BMT1845411B.1.2.3,bus2=BMT99095523.1.2.3,Phases=3,Linecode=CAB108_3_3_3,Length=0.029163000,Units=km
new line.SMT_3149959 bus1=BMT99095544.1.2.3,bus2=BMT121666722.1.2.3,Phases=3,Linecode=CAB108_3_3_3,Length=0.035009000,Units=km
new line.SMT_3149980 bus1=BMT99095523.1.2.3,bus2=BMT121666708.1.2.3,Phases=3,Linecode=CAB108_3_3_3,Length=0.015137000,Units=km
new line.SMT_3149987 bus1=BMT99097637.1.2.3,bus2=BMT99097644.1.2.3,Phases=3,Linecode=CAB103_3_3_3,Length=0.022029000,Units=km
new line.SMT_3150036 bus1=BMT99097791.1.2.3,bus2=BMT1845460B.1.2.3,Phases=3,Linecode=CABA06_3_3_3,Length=0.037493000,Units=km
new line.SMT_3150057 bus1=BMT1845446B.1.2.3,bus2=BMT1845453B.1.2.3,Phases=3,Linecode=CAB103_3_3_3,Length=0.034024000,Units=km
new line.SMT_3150085 bus1=BMT1845453B.1.2.3,bus2=BMT99097791.1.2.3,Phases=3,Linecode=CAB103_3_3_3,Length=0.032149000,Units=km
new line.SMT_3150106 bus1=BMT1845460B.1.2.3,bus2=BMT1845432B.1.2.3,Phases=3,Linecode=CABA06_3_3_3,Length=0.033250000,Units=km
new line.SMT_3151317 bus1=BMT1845922B.1.2.3,bus2=BMT99097721.1.2.3,Phases=3,Linecode=CAB103_3_3_3,Length=0.029282000,Units=km
new line.SMT_3151331 bus1=BMT99097714.1.2.3,bus2=BMT1845922B.1.2.3,Phases=3,Linecode=CAB103_3_3_3,Length=0.031008000,Units=km
new line.SMT_3151338 bus1=BMT124300353.1.2.3,bus2=BMT1845964B.1.2.3,Phases=3,Linecode=CAB103_3_3_3,Length=0.039823000,Units=km
new line.SMT_3151359 bus1=BMT99097707.1.2.3,bus2=BMT99097714.1.2.3,Phases=3,Linecode=CAB103_3_3_3,Length=0.031008000,Units=km
new line.SMT_3151366 bus1=BMT99097700.1.2.3,bus2=BMT99097707.1.2.3,Phases=3,Linecode=CAB103_3_3_3,Length=0.029025000,Units=km
new line.SMT_3151373 bus1=BMT124301186.1.2.3,bus2=BMT124301193.1.2.3,Phases=3,Linecode=CAB103_3_3_3,Length=0.034009000,Units=km
new line.SMT_3151394 bus1=BMT1845950B.1.2.3,bus2=BMT99097700.1.2.3,Phases=3,Linecode=CAB103_3_3_3,Length=0.030008000,Units=km
new line.SMT_3151408 bus1=BMT124301193.1.2.3,bus2=BMT1845978B.1.2.3,Phases=3,Linecode=CAB103_3_3_3,Length=0.035024000,Units=km
new line.SMT_3151422 bus1=BMT1845964B.1.2.3,bus2=BMT124300360.1.2.3,Phases=3,Linecode=CAB103_3_3_3,Length=0.031789000,Units=km
new line.SMT_3151436 bus1=BMT124300360.1.2.3,bus2=BMT1845985B.1.2.3,Phases=3,Linecode=CAB103_3_3_3,Length=0.035703000,Units=km
new line.SMT_3151457 bus1=BMT1845978B.1.2.3,bus2=BMT1845992B.1.2.3,Phases=3,Linecode=CAB103_3_3_3,Length=0.035024000,Units=km
new line.SMT_3151485 bus1=BMT1845985B.1.2.3,bus2=BMT1845999B.1.2.3,Phases=3,Linecode=CAB103_3_3_3,Length=0.035520000,Units=km
new line.SMT_3151499 bus1=BMT1845992B.1.2.3,bus2=BMT1858767B.1.2.3,Phases=3,Linecode=CAB103_3_3_3,Length=0.026007000,Units=km
new line.SMT_3151513 bus1=BMT1845999B.1.2.3,bus2=BMT1846006B.1.2.3,Phases=3,Linecode=CAB103_3_3_3,Length=0.034722000,Units=km
new line.SMT_3151527 bus1=BMT1846006B.1.2.3,bus2=BMT1860426B.1.2.3,Phases=3,Linecode=CAB103_3_3_3,Length=0.032566000,Units=km
new line.SMT_3151548 bus1=BMT1846013B.1.2.3,bus2=BMT1846020B.1.2.3,Phases=3,Linecode=CAB108_3_3_3,Length=0.031008000,Units=km
new line.SMT_3151569 bus1=BMT1846020B.1.2.3,bus2=BMT99095348.1.2.3,Phases=3,Linecode=CAB108_3_3_3,Length=0.015038000,Units=km
new line.SMT_3151590 bus1=BMT99095348.1.2.3,bus2=BMT1846034B.1.2.3,Phases=3,Linecode=CAB108_3_3_3,Length=0.016005000,Units=km
new line.SMT_3151604 bus1=BMT1846034B.1.2.3,bus2=BMT99095355.1.2.3,Phases=3,Linecode=CAB108_3_3_3,Length=0.029025000,Units=km
new line.SMT_3151625 bus1=BMT99095355.1.2.3,bus2=BMT1846048B.1.2.3,Phases=3,Linecode=CAB108_3_3_3,Length=0.037023000,Units=km
new line.SMT_3151653 bus1=BMT1846048B.1.2.3,bus2=BMT1846055B.1.2.3,Phases=3,Linecode=CAB108_3_3_3,Length=0.021006000,Units=km
new line.SMT_11704015 bus1=BMT114365323.1.2.3,bus2=BMT114365330.1.2.3,Phases=3,Linecode=CABA06_3_3_3,Length=0.014146000,Units=km
new line.SMT_11718722 bus1=BMT169512355.1.2.3,bus2=BMT169512356.1.2.3,Phases=3,Linecode=CABA08_3_3_3,Length=0.020254000,Units=km
new line.SMT_11718729 bus1=BMT160521504.1.2.3,bus2=BMT115486023.1.2.3,Phases=3,Linecode=CABA08_3_3_3,Length=0.017498000,Units=km
new line.SMT_11718750 bus1=BMT160521505.1.2.3,bus2=BMT2002169B.1.2.3,Phases=3,Linecode=CABA08_3_3_3,Length=0.037957000,Units=km
new line.SMT_11718778 bus1=BMT2002169B.1.2.3,bus2=BMT160521504.1.2.3,Phases=3,Linecode=CABA08_3_3_3,Length=0.045234000,Units=km
new line.SMT_11718841 bus1=BMT160521507.1.2.3,bus2=BMT160521509.1.2.3,Phases=3,Linecode=CABA08_3_3_3,Length=0.034141000,Units=km
new line.SMT_11718848 bus1=BMT160521509.1.2.3,bus2=BMT160521510.1.2.3,Phases=3,Linecode=CABA08_3_3_3,Length=0.013157000,Units=km
new line.SMT_11718981 bus1=BMT115598933.1.2.3,bus2=BMT156901432.1.2.3,Phases=3,Linecode=CABA08_3_3_3,Length=0.020006000,Units=km
new line.SMT_3108379 bus1=BMT1830123B.1.2.3,bus2=BMT163226044.1.2.3,Phases=3,Linecode=CAB108_3_3_3,Length=0.027081000,Units=km
new line.SMT_3108400 bus1=BMT1830137B.1.2.3,bus2=BMT1830123B.1.2.3,Phases=3,Linecode=CAB108_3_3_3,Length=0.026026000,Units=km
new line.SMT_3108414 bus1=BMT1830144B.1.2.3,bus2=BMT1830137B.1.2.3,Phases=3,Linecode=CAB108_3_3_3,Length=0.027026000,Units=km
new line.SMT_3108428 bus1=BMT163226043.1.2.3,bus2=BMT1830144B.1.2.3,Phases=3,Linecode=CAB108_3_3_3,Length=0.031024000,Units=km
new line.SMT_3108456 bus1=BMT99095600.1.2.3,bus2=BMT163226043.1.2.3,Phases=3,Linecode=CAB108_3_3_3,Length=0.034068000,Units=km
new line.SMT_3108477 bus1=BMT121666729.1.2.3,bus2=BMT121666743.1.2.3,Phases=3,Linecode=CAB108_3_3_3,Length=0.036023000,Units=km
new line.SMT_3108498 bus1=BMT121666715.1.2.3,bus2=BMT121666729.1.2.3,Phases=3,Linecode=CAB108_3_3_3,Length=0.028025000,Units=km
new line.SMT_3108505 bus1=BMT121666715.1.2.3,bus2=BMT121666736.1.2.3,Phases=3,Linecode=CAB103_3_3_3,Length=0.009222000,Units=km
new line.SMT_3108561 bus1=BMT121666708.1.2.3,bus2=BMT121666715.1.2.3,Phases=3,Linecode=CAB108_3_3_3,Length=0.022097000,Units=km
new line.SMT_3108568 bus1=BMT121666708.1.2.3,bus2=BMT99095544.1.2.3,Phases=3,Linecode=CAB108_3_3_3,Length=0.020031000,Units=km
new line.SMT_3114777 bus1=BMT170043697.1.2.3,bus2=BMT170043698.1.2.3,Phases=3,Linecode=CABA06_3_3_3,Length=0.038908000,Units=km
new line.SMT_3114819 bus1=BMT170043698.1.2.3,bus2=BMT1825356B.1.2.3,Phases=3,Linecode=CAB103_3_3_3,Length=0.008547000,Units=km
new line.SMT_3114826 bus1=BMT170043698.1.2.3,bus2=BMT1832552B.1.2.3,Phases=3,Linecode=CABA06_3_3_3,Length=0.034665000,Units=km
new line.SMT_3114854 bus1=BMT1832552B.1.2.3,bus2=BMT1832559B.1.2.3,Phases=3,Linecode=CABA06_3_3_3,Length=0.038220000,Units=km
new line.SMT_3114889 bus1=BMT1832559B.1.2.3,bus2=BMT170043700.1.2.3,Phases=3,Linecode=CABA06_3_3_3,Length=0.038220000,Units=km
new line.SMT_3114917 bus1=BMT170043700.1.2.3,bus2=BMT170043701.1.2.3,Phases=3,Linecode=CABA06_3_3_3,Length=0.037493000,Units=km
new line.SMT_3114945 bus1=BMT170043701.1.2.3,bus2=BMT1832580B.1.2.3,Phases=3,Linecode=CAB103_3_3_3,Length=0.036888000,Units=km
new line.SMT_3114973 bus1=BMT1832580B.1.2.3,bus2=BMT170043702.1.2.3,Phases=3,Linecode=CAB103_3_3_3,Length=0.030025000,Units=km
new line.SMT_3115008 bus1=BMT99095957.1.2.3,bus2=BMT99095985.1.2.3,Phases=3,Linecode=CAB103_3_3_3,Length=0.025305000,Units=km
new line.SMT_3115036 bus1=BMT1832594B.1.2.3,bus2=BMT1832615B.1.2.3,Phases=3,Linecode=CAB103_3_3_3,Length=0.031153000,Units=km
new line.SMT_3115064 bus1=BMT99095985.1.2.3,bus2=BMT99095992.1.2.3,Phases=3,Linecode=CAB103_3_3_3,Length=0.049013000,Units=km
new line.SMT_3115071 bus1=BMT99095985.1.2.3,bus2=BMT1832608B.1.2.3,Phases=3,Linecode=CAB103_3_3_3,Length=0.023028000,Units=km
new line.SMT_3156637 bus1=BMT1847791B.1.2.3,bus2=BMT3052946B.1.2.3,Phases=3,Linecode=CAB108_3_3_3,Length=0.022006000,Units=km
new line.SMT_3156658 bus1=BMT1847798B.1.2.3,bus2=BMT1847812B.1.2.3,Phases=3,Linecode=CAB108_3_3_3,Length=0.034447000,Units=km
new line.SMT_3156686 bus1=BMT1847805B.1.2.3,bus2=BMT1847791B.1.2.3,Phases=3,Linecode=CAB108_3_3_3,Length=0.040803000,Units=km
new line.SMT_3156700 bus1=BMT1847812B.1.2.3,bus2=BMT1847833B.1.2.3,Phases=3,Linecode=CAB108_3_3_3,Length=0.033295000,Units=km
new line.SMT_3156742 bus1=BMT1847826B.1.2.3,bus2=BMT99095313.1.2.3,Phases=3,Linecode=CAB108_3_3_3,Length=0.024048000,Units=km
new line.SMT_3156756 bus1=BMT1847833B.1.2.3,bus2=BMT1847847B.1.2.3,Phases=3,Linecode=CAB108_3_3_3,Length=0.033610000,Units=km
new line.SMT_3156777 bus1=BMT99095299.1.2.3,bus2=BMT1846146B.1.2.3,Phases=3,Linecode=CAB108_3_3_3,Length=0.029622000,Units=km
new line.SMT_3156784 bus1=BMT99095299.1.2.3,bus2=BMT1847826B.1.2.3,Phases=3,Linecode=CAB108_3_3_3,Length=0.035180000,Units=km
new line.SMT_3156805 bus1=BMT1847847B.1.2.3,bus2=BMT1842681B.1.2.3,Phases=3,Linecode=CAB108_3_3_3,Length=0.028025000,Units=km
new line.SMT_3156854 bus1=BMT1847868B.1.2.3,bus2=BMT2787002.1.2.3,Phases=3,Linecode=CAB108_3_3_3,Length=0.034722000,Units=km
new line.SMT_3156875 bus1=BMT1847875B.1.2.3,bus2=BMT150903136.1.2.3,Phases=3,Linecode=CABA06_3_3_3,Length=0.038023000,Units=km
new line.SMT_3156903 bus1=BMT150903136.1.2.3,bus2=BMT150903137.1.2.3,Phases=3,Linecode=CAB103_3_3_3,Length=0.039457000,Units=km
new line.SMT_3157687 bus1=BMT1848225B.1.2.3,bus2=BMT1845411B.1.2.3,Phases=3,Linecode=CAB108_3_3_3,Length=0.032397000,Units=km
new line.SMT_10499651 bus1=BMT1871241B.1.2.3,bus2=BMT6760182B.1.2.3,Phases=3,Linecode=CABA08_3_3_3,Length=0.008065000,Units=km
new line.SMT_10499658 bus1=BMT6760182B.1.2.3,bus2=BMT2377047B.1.2.3,Phases=3,Linecode=CABA08_3_3_3,Length=0.018033000,Units=km
new line.SMT_10828217 bus1=BMT121666750.1.2.3,bus2=BMT121666757.1.2.3,Phases=3,Linecode=CABA06_3_3_3,Length=0.035520000,Units=km
new line.SMT_10828224 bus1=BMT121666757.1.2.3,bus2=BMT121666764.1.2.3,Phases=3,Linecode=CABA06_3_3_3,Length=0.029975000,Units=km
new line.SMT_11018491 bus1=BMT3224040B.1.2.3,bus2=BMT99096426.1.2.3,Phases=3,Linecode=CABA06_3_3_3,Length=0.029622000,Units=km
new line.SMT_11018519 bus1=BMT163940087.1.2.3,bus2=BMT7248313B.1.2.3,Phases=3,Linecode=CAB601_3_3_3,Length=0.010201000,Units=km
new line.SMT_11018603 bus1=BMT7248313B.1.2.3,bus2=BMT163940088.1.2.3,Phases=3,Linecode=CAB601_3_3_3,Length=0.008065000,Units=km
new line.SMT_11748395 bus1=BMT163226044.1.2.3,bus2=BMT163226046.1.2.3,Phases=3,Linecode=CABA06_3_3_3,Length=0.031313000,Units=km
new line.SMT_12148879 bus1=BMT149492645.1.2.3,bus2=BMT8744721B.1.2.3,Phases=3,Linecode=CABA08_3_3_3,Length=0.013042000,Units=km
new line.SMT_12148880 bus1=BMT8744721B.1.2.3,bus2=BMT169512353.1.2.3,Phases=3,Linecode=CABA08_3_3_3,Length=0.016648000,Units=km
new line.SMT_12148888 bus1=BMT150349383.1.2.3,bus2=BMT8744727B.1.2.3,Phases=3,Linecode=CAB609_3_3_3,Length=0.009490000,Units=km
new line.SMT_12148890 bus1=BMT8744727B.1.2.3,bus2=BMT150349384.1.2.3,Phases=3,Linecode=CAB609_3_3_3,Length=0.017093000,Units=km
new line.SMT_12220466 bus1=BMT152084065.1.2.3,bus2=BMT152084066.1.2.3,Phases=3,Linecode=CAB103_3_3_3,Length=0.017469000,Units=km
new line.SMT_12220620 bus1=BMT152083142.1.2.3,bus2=BMT152083143.1.2.3,Phases=3,Linecode=CAB103_3_3_3,Length=0.026256000,Units=km
new line.SMT_12220622 bus1=BMT152083163.1.2.3,bus2=BMT8821258B.1.2.3,Phases=3,Linecode=CAB103_3_3_3,Length=0.020597000,Units=km
new line.SMT_12220623 bus1=BMT8821258B.1.2.3,bus2=BMT152083198.1.2.3,Phases=3,Linecode=CAB103_3_3_3,Length=0.025067000,Units=km
new line.SMT_12220624 bus1=BMT167749582.1.2.3,bus2=BMT3408749B.1.2.3,Phases=3,Linecode=CAB103_3_3_3,Length=0.026084000,Units=km
new line.SMT_12220625 bus1=BMT151529052.1.2.3,bus2=BMT8821259B.1.2.3,Phases=3,Linecode=CAB103_3_3_3,Length=0.023093000,Units=km
new line.SMT_12220626 bus1=BMT8821259B.1.2.3,bus2=BMT152083941.1.2.3,Phases=3,Linecode=CAB103_3_3_3,Length=0.032994000,Units=km
new line.SMT_12220632 bus1=BMT152084225.1.2.3,bus2=BMT152084226.1.2.3,Phases=3,Linecode=CAB102_3_3_3,Length=0.025325000,Units=km
new line.SMT_12220633 bus1=BMT152083941.1.2.3,bus2=BMT8821267B.1.2.3,Phases=3,Linecode=CAB103_3_3_3,Length=0.047772000,Units=km
new line.SMT_12220634 bus1=BMT152084209.1.2.3,bus2=BMT8821267B.1.2.3,Phases=3,Linecode=CAB103_3_3_3,Length=0.043669000,Units=km
new line.SMT_12220636 bus1=BMT152084209.1.2.3,bus2=BMT167749583.1.2.3,Phases=3,Linecode=CAB103_3_3_3,Length=0.014769000,Units=km
new line.SMT_12220637 bus1=BMT167749584.1.2.3,bus2=BMT2074129B.1.2.3,Phases=3,Linecode=CAB103_3_3_3,Length=0.012087000,Units=km
new line.SMT_12220639 bus1=BMT3408868B.1.2.3,bus2=BMT152084202.1.2.3,Phases=3,Linecode=CAB103_3_3_3,Length=0.019319000,Units=km
new line.SMT_12220640 bus1=BMT166835311.1.2.3,bus2=BMT166835312.1.2.3,Phases=3,Linecode=CAB902_4_3_3,Length=0.005002000,Units=km
new line.SMT_12588606 bus1=BMT166782978.1.2.3,bus2=BMT166640535.1.2.3,Phases=3,Linecode=CABA06_3_3_3,Length=0.039860000,Units=km
...
