2024_89_CemigReconfigurationCases/1_AlimsCemig/BHMR09/BHMR09Transformadores.dss
new transformer.TRF_1370945 Phases=3,Windings=2,Buses=[BMT148407808.1.2.3 BBT131699283.1.2.3.0],Conns=[delta wye],kvs=[13.800000000 0.22],kvas=[45.000000000 45.000000000],Taps=[1,1.000000000],XHL=3.640000000,%loadloss=1.670000000,%noloadloss=0.433000000
new transformer.TRF_1391493 Phases=3,Windings=2,Buses=[BMT148407810.1.2.3 BBT148407000.1.2.3.0],Conns=[delta wye],kvs=[13.800000000 0.22],kvas=[150.000000000 150.000000000],Taps=[1,1.000000000],XHL=3.810000000,%loadloss=1.230000000,%noloadloss=0.323000000
new transformer.TRF_277285 Phases=3,Windings=2,Buses=[BMT170043699.1.2.3 BBT2155847.1.2.3.0],Conns=[delta wye],kvs=[13.800000000 0.22],kvas=[150.000000000 150.000000000],Taps=[1,1.000000000],XHL=3.810000000,%loadloss=1.230000000,%noloadloss=0.323000000
new transformer.TRF_277292 Phases=3,Windings=2,Buses=[BMT151389297.1.2.3 BBT2155917.1.2.3.0],Conns=[delta wye],kvs=[13.800000000 0.22],kvas=[75.000000000 75.000000000],Taps=[1,1.000000000],XHL=3.720000000,%loadloss=1.470000000,%noloadloss=0.393000000
new transformer.TRF_277299 Phases=3,Windings=2,Buses=[BMT179203798.1.2.3 BBT2155931.1.2.3.0],Conns=[delta wye],kvs=[13.800000000 0.22],kvas=[150.000000000 150.000000000],Taps=[1,1.000000000],XHL=3.810000000,%loadloss=1.230000000,%noloadloss=0.323000000
new transformer.TRF_277362 Phases=3,Windings=2,Buses=[BMT152237649.1.2.3 BBT2156680.1.2.3.0],Conns=[delta wye],kvs=[13.800000000 0.22],kvas=[75.000000000 75.000000000],Taps=[1,1.000000000],XHL=3.720000000,%loadloss=1.470000000,%noloadloss=0.393000000
new transformer.TRF_277537 Phases=3,Windings=2,Buses=[BMT152237648.1.2.3 BBT2157660.1.2.3.0],Conns=[delta wye],kvs=[13.800000000 0.22],kvas=[75.000000000 75.000000000],Taps=[1,1.000000000],XHL=3.720000000,%loadloss=1.470000000,%noloadloss=0.393000000
new transformer.TRF_277740 Phases=3,Windings=2,Buses=[BMT151389296.1.2.3 BBT2158500.1.2.3.0],Conns=[delta wye],kvs=[13.800000000 0.22],kvas=[100.000000000 100.000000000],Taps=[1,1.000000000],XHL=3.770000000,%loadloss=1.330000000,%noloadloss=0.390000000
new transformer.TRF_277775 Phases=3,Windings=2,Buses=[BMT148822199.1.2.3 BBT2158752.1.2.3.0],Conns=[delta wye],kvs=[13.800000000 0.22],kvas=[100.000000000 100.000000000],Taps=[1,1.000000000],XHL=3.770000000,%loadloss=1.330000000,%noloadloss=0.390000000
new transformer.TRF_281233 Phases=3,Windings=2,Buses=[BMT150095119.1.2.3 BBT2186451.1.2.3.0],Conns=[delta wye],kvs=[13.800000000 0.22],kvas=[75.000000000 75.000000000],Taps=[1,1.000000000],XHL=3.720000000,%loadloss=1.470000000,%noloadloss=0.393000000
new transformer.TRF_281352 Phases=3,Windings=2,Buses=[BMT168080742.1.2.3 BBT2187732.1.2.3.0],Conns=[delta wye],kvs=[13.800000000 0.22],kvas=[75.000000000 75.000000000],Taps=[1,1.000000000],XHL=3.720000000,%loadloss=1.470000000,%noloadloss=0.393000000
new transformer.TRF_281401 Phases=3,Windings=2,Buses=[BMT150095123.1.2.3 BBT2188236.1.2.3.0],Conns=[delta wye],kvs=[13.800000000 0.22],kvas=[75.000000000 75.000000000],Taps=[1,1.000000000],XHL=3.720000000,%loadloss=1.470000000,%noloadloss=0.393000000
new transformer.TRF_281415 Phases=3,Windings=2,Buses=[BMT150903134.1.2.3 BBT2188327.1.2.3.0],Conns=[delta wye],kvs=[13.800000000 0.22],kvas=[75.000000000 75.000000000],Taps=[1,1.000000000],XHL=3.720000000,%loadloss=1.470000000,%noloadloss=0.393000000
new transformer.TRF_281436 Phases=3,Windings=2,Buses=[BMT151308267.1.2.3 BBT2188516.1.2.3.0],Conns=[delta wye],kvs=[13.800000000 0.22],kvas=[150.000000000 150.000000000],Taps=[1,1.000000000],XHL=3.810000000,%loadloss=1.230000000,%noloadloss=0.323000000
new transformer.TRF_281506 Phases=3,Windings=2,Buses=[BMT151308270.1.2.3 BBT2189118.1.2.3.0],Conns=[delta wye],kvs=[13.800000000 0.22],kvas=[150.000000000 150.000000000],Taps=[1,1.000000000],XHL=3.810000000,%loadloss=1.230000000,%noloadloss=0.323000000
new transformer.TRF_281555 Phases=3,Windings=2,Buses=[BMT99097651.1.2.3 BBT2189587.1.2.3.0],Conns=[delta wye],kvs=[13.800000000 0.22],kvas=[100.000000000 100.000000000],Taps=[1,1.000000000],XHL=3.770000000,%loadloss=1.330000000,%noloadloss=0.390000000
new transformer.TRF_285391 Phases=3,Windings=2,Buses=[BMT177524674.1.2.3 BBT2214381.1.2.3.0],Conns=[delta wye],kvs=[13.800000000 0.22],kvas=[75.000000000 75.000000000],Taps=[1,1.000000000],XHL=3.720000000,%loadloss=1.470000000,%noloadloss=0.393000000
new transformer.TRF_316884 Phases=3,Windings=2,Buses=[BMT169512354.1.2.3 BBT2400294.1.2.3.0],Conns=[delta wye],kvs=[13.800000000 0.22],kvas=[45.000000000 45.000000000],Taps=[1,1.000000000],XHL=3.640000000,%loadloss=1.670000000,%noloadloss=0.433000000
new transformer.TRF_316954 Phases=3,Windings=2,Buses=[BMT136291458.1.2.3 BBT2400630.1.2.3.0],Conns=[delta wye],kvs=[13.800000000 0.22],kvas=[100.000000000 100.000000000],Taps=[1,1.000000000],XHL=3.770000000,%loadloss=1.330000000,%noloadloss=0.390000000
new transformer.TRF_1360970 Phases=3,Windings=2,Buses=[BMT124301193.1.2.3 BBT124301207.1.2.3.0],Conns=[delta wye],kvs=[13.800000000 0.22],kvas=[75.000000000 75.000000000],Taps=[1,1.000000000],XHL=3.720000000,%loadloss=1.470000000,%noloadloss=0.393000000
new transformer.TRF_1361425 Phases=3,Windings=2,Buses=[BMT168223346.1.2.3 BBT124508008.1.2.3.0],Conns=[delta wye],kvs=[13.800000000 0.22],kvas=[45.000000000 45.000000000],Taps=[1,1.000000000],XHL=3.640000000,%loadloss=1.670000000,%noloadloss=0.433000000
new transformer.TRF_1380052 Phases=3,Windings=2,Buses=[BMT175476442.1.2.3 BBT136945552.1.2.3.0],Conns=[delta wye],kvs=[13.800000000 0.22],kvas=[100.000000000 100.000000000],Taps=[1,1.000000000],XHL=3.770000000,%loadloss=1.330000000,%noloadloss=0.390000000
new transformer.TRF_1414505 Phases=3,Windings=2,Buses=[BMT163376358.1.2.3 BBT153760503.1.2.3.0],Conns=[delta wye],kvs=[13.800000000 0.22],kvas=[45.000000000 45.000000000],Taps=[1,1.000000000],XHL=3.640000000,%loadloss=1.670000000,%noloadloss=0.433000000
new transformer.TRF_279161 Phases=3,Windings=2,Buses=[BMT148822198.1.2.3 BBT2171037.1.2.3.0],Conns=[delta wye],kvs=[13.800000000 0.22],kvas=[150.000000000 150.000000000],Taps=[1,1.000000000],XHL=3.810000000,%loadloss=1.230000000,%noloadloss=0.323000000
new transformer.TRF_279539 Phases=3,Windings=2,Buses=[BMT99097868.1.2.3 BBT2174376.1.2.3.0],Conns=[delta wye],kvs=[13.800000000 0.22],kvas=[75.000000000 75.000000000],Taps=[1,1.000000000],XHL=3.720000000,%loadloss=1.470000000,%noloadloss=0.393000000
new transformer.TRF_279595 Phases=3,Windings=2,Buses=[BMT153766858.1.2.3 BBT2174810.1.2.3.0],Conns=[delta wye],kvs=[13.800000000 0.22],kvas=[150.000000000 150.000000000],Taps=[1,1.000000000],XHL=3.810000000,%loadloss=1.230000000,%noloadloss=0.323000000
new transformer.TRF_279693 Phases=3,Windings=2,Buses=[BMT150095120.1.2.3 BBT2175615.1.2.3.0],Conns=[delta wye],kvs=[13.800000000 0.22],kvas=[150.000000000 150.000000000],Taps=[1,1.000000000],XHL=3.810000000,%loadloss=1.230000000,%noloadloss=0.323000000
new transformer.TRF_283242 Phases=3,Windings=2,Buses=[BMT177524679.1.2.3 BBT2200535.1.2.3.0],Conns=[delta wye],kvs=[13.800000000 0.22],kvas=[75.000000000 75.000000000],Taps=[1,1.000000000],XHL=3.720000000,%loadloss=1.470000000,%noloadloss=0.393000000
new transformer.TRF_283550 Phases=3,Windings=2,Buses=[BMT177524678.1.2.3 BBT2202845.1.2.3.0],Conns=[delta wye],kvs=[13.800000000 0.22],kvas=[45.000000000 45.000000000],Taps=[1,1.000000000],XHL=3.640000000,%loadloss=1.670000000,%noloadloss=0.433000000
new transformer.TRF_320419 Phases=3,Windings=2,Buses=[BMT153767329.1.2.3 BBT2423170.1.2.3.0],Conns=[delta wye],kvs=[13.800000000 0.22],kvas=[45.000000000 45.000000000],Taps=[1,1.000000000],XHL=3.640000000,%loadloss=1.670000000,%noloadloss=0.433000000
new transformer.TRF_320503 Phases=3,Windings=2,Buses=[BMT148407805.1.2.3 BBT2423926.1.2.3.0],Conns=[delta wye],kvs=[13.800000000 0.22],kvas=[45.000000000 45.000000000],Taps=[1,1.000000000],XHL=3.640000000,%loadloss=1.670000000,%noloadloss=0.433000000
new transformer.TRF_324213 Phases=3,Windings=2,Buses=[BMT153767328.1.2.3 BBT2447544.1.2.3.0],Conns=[delta wye],kvs=[13.800000000 0.22],kvas=[100.000000000 100.000000000],Taps=[1,1.000000000],XHL=3.770000000,%loadloss=1.330000000,%noloadloss=0.390000000
new transformer.TRF_324360 Phases=3,Windings=2,Buses=[BMT99097028.1.2.3 BBT2448517.1.2.3.0],Conns=[delta wye],kvs=[13.800000000 0.22],kvas=[100.000000000 100.000000000],Taps=[1,1.000000000],XHL=3.770000000,%loadloss=1.330000000,%noloadloss=0.390000000
new transformer.TRF_324514 Phases=3,Windings=2,Buses=[BMT107490238.1.2.3 BBT2449315.1.2.3.0],Conns=[delta wye],kvs=[13.800000000 0.22],kvas=[100.000000000 100.000000000],Taps=[1,1.000000000],XHL=3.770000000,%loadloss=1.330000000,%noloadloss=0.390000000
new transformer.TRF_324563 Phases=3,Windings=2,Buses=[BMT166225952.1.2.3 BBT2449511.1.2.3.0],Conns=[delta wye],kvs=[13.800000000 0.22],kvas=[150.000000000 150.000000000],Taps=[1,1.000000000],XHL=3.810000000,%loadloss=1.230000000,%noloadloss=0.323000000
new transformer.TRF_1238862 Phases=3,Windings=2,Buses=[BMT121666764.1.2.3 BBT56133205.1.2.3.0],Conns=[delta wye],kvs=[13.800000000 0.22],kvas=[45.000000000 45.000000000],Taps=[1,1.000000000],XHL=3.640000000,%loadloss=1.670000000,%noloadloss=0.433000000
new transformer.TRF_1339025 Phases=3,Windings=2,Buses=[BMT107490273.1.2.3 BBT107490280.1.2.3.0],Conns=[delta wye],kvs=[13.800000000 0.22],kvas=[150.000000000 150.000000000],Taps=[1,1.000000000],XHL=3.810000000,%loadloss=1.230000000,%noloadloss=0.323000000
new transformer.TRF_266729 Phases=3,Windings=2,Buses=[BMT177524675.1.2.3 BBT2092735.1.2.3.0],Conns=[delta wye],kvs=[13.800000000 0.22],kvas=[75.000000000 75.000000000],Taps=[1,1.000000000],XHL=3.720000000,%loadloss=1.470000000,%noloadloss=0.393000000
new transformer.TRF_267065 Phases=3,Windings=2,Buses=[BMT99095145.1.2.3 BBT2095101.1.2.3.0],Conns=[delta wye],kvs=[13.800000000 0.22],kvas=[75.000000000 75.000000000],Taps=[1,1.000000000],XHL=3.720000000,%loadloss=1.470000000,%noloadloss=0.393000000
new transformer.TRF_280085 Phases=3,Windings=2,Buses=[BMT99097875.1.2.3 BBT2178394.1.2.3.0],Conns=[delta wye],kvs=[13.800000000 0.22],kvas=[75.000000000 75.000000000],Taps=[1,1.000000000],XHL=3.720000000,%loadloss=1.470000000,%noloadloss=0.393000000
new transformer.TRF_280120 Phases=3,Windings=2,Buses=[BMT177033923.1.2.3 BBT2178618.1.2.3.0],Conns=[delta wye],kvs=[13.800000000 0.22],kvas=[75.000000000 75.000000000],Taps=[1,1.000000000],XHL=3.720000000,%loadloss=1.470000000,%noloadloss=0.393000000
new transformer.TRF_280148 Phases=3,Windings=2,Buses=[BMT177033916.1.2.3 BBT2178765.1.2.3.0],Conns=[delta wye],kvs=[13.800000000 0.22],kvas=[75.000000000 75.000000000],Taps=[1,1.000000000],XHL=3.720000000,%loadloss=1.470000000,%noloadloss=0.393000000
new transformer.TRF_280288 Phases=3,Windings=2,Buses=[BMT99097791.1.2.3 BBT2179808.1.2.3.0],Conns=[delta wye],kvs=[13.800000000 0.22],kvas=[75.000000000 75.000000000],Taps=[1,1.000000000],XHL=3.720000000,%loadloss=1.470000000,%noloadloss=0.393000000
new transformer.TRF_280365 Phases=3,Windings=2,Buses=[BMT124300360.1.2.3 BBT2180459.1.2.3.0],Conns=[delta wye],kvs=[13.800000000 0.22],kvas=[75.000000000 75.000000000],Taps=[1,1.000000000],XHL=3.720000000,%loadloss=1.470000000,%noloadloss=0.393000000
new transformer.TRF_280379 Phases=3,Windings=2,Buses=[BMT99095355.1.2.3 BBT2180571.1.2.3.0],Conns=[delta wye],kvs=[13.800000000 0.22],kvas=[75.000000000 75.000000000],Taps=[1,1.000000000],XHL=3.720000000,%loadloss=1.470000000,%noloadloss=0.393000000
new transformer.TRF_280400 Phases=3,Windings=2,Buses=[BMT99095341.1.2.3 BBT2180725.1.2.3.0],Conns=[delta wye],kvs=[13.800000000 0.22],kvas=[30.000000000 30.000000000],Taps=[1,1.000000000],XHL=3.560000000,%loadloss=1.820000000,%noloadloss=0.500000000
new transformer.TRF_280477 Phases=3,Windings=2,Buses=[BMT177033912.1.2.3 BBT2181313.1.2.3.0],Conns=[delta wye],kvs=[13.800000000 0.22],kvas=[45.000000000 45.000000000],Taps=[1,1.000000000],XHL=3.640000000,%loadloss=1.670000000,%noloadloss=0.433000000
new transformer.TRF_283935 Phases=3,Windings=2,Buses=[BMT151308271.1.2.3 BBT2205001.1.2.3.0],Conns=[delta wye],kvs=[13.800000000 0.22],kvas=[75.000000000 75.000000000],Taps=[1,1.000000000],XHL=3.720000000,%loadloss=1.470000000,%noloadloss=0.393000000
new transformer.TRF_284012 Phases=3,Windings=2,Buses=[BMT178705442.1.2.3 BBT2205589.1.2.3.0],Conns=[delta wye],kvs=[13.800000000 0.22],kvas=[75.000000000 75.000000000],Taps=[1,1.000000000],XHL=3.720000000,%loadloss=1.470000000,%noloadloss=0.393000000
new transformer.TRF_317395 Phases=3,Windings=2,Buses=[BMT168223350.1.2.3 BBT2403696.1.2.3.0],Conns=[delta wye],kvs=[13.800000000 0.22],kvas=[75.000000000 75.000000000],Taps=[1,1.000000000],XHL=3.720000000,%loadloss=1.470000000,%noloadloss=0.393000000
new transformer.TRF_317451 Phases=3,Windings=2,Buses=[BMT136291465.1.2.3 BBT2404095.1.2.3.0],Conns=[delta wye],kvs=[13.800000000 0.22],kvas=[75.000000000 75.000000000],Taps=[1,1.000000000],XHL=3.720000000,%loadloss=1.470000000,%noloadloss=0.393000000
new transformer.TRF_322288 Phases=3,Windings=2,Buses=[BMT148407807.1.2.3 BBT2434993.1.2.3.0],Conns=[delta wye],kvs=[13.800000000 0.22],kvas=[75.000000000 75.000000000],Taps=[1,1.000000000],XHL=3.720000000,%loadloss=1.470000000,%noloadloss=0.393000000
new transformer.TRF_324913 Phases=3,Windings=2,Buses=[BMT163226047.1.2.3 BBT2452157.1.2.3.0],Conns=[delta wye],kvs=[13.800000000 0.22],kvas=[150.000000000 150.000000000],Taps=[1,1.000000000],XHL=3.810000000,%loadloss=1.230000000,%noloadloss=0.323000000
new transformer.TRF_325179 Phases=3,Windings=2,Buses=[BMT153766860.1.2.3 BBT2454404.1.2.3.0],Conns=[delta wye],kvs=[13.800000000 0.22],kvas=[75.000000000 75.000000000],Taps=[1,1.000000000],XHL=3.720000000,%loadloss=1.470000000,%noloadloss=0.393000000
new transformer.TRF_1328539 Phases=3,Windings=2,Buses=[BMT121602504.1.2.3 BBT97098619.1.2.3.0],Conns=[delta wye],kvs=[13.800000000 0.22],kvas=[75.000000000 75.000000000],Taps=[1,1.000000000],XHL=3.720000000,%loadloss=1.470000000,%noloadloss=0.393000000
new transformer.TRF_1372772 Phases=3,Windings=2,Buses=[BMT133255600.1.2.3 BBT133255607.1.2.3.0],Conns=[delta wye],kvs=[13.800000000 0.22],kvas=[150.000000000 150.000000000],Taps=[1,1.000000000],XHL=3.810000000,%loadloss=1.230000000,%noloadloss=0.323000000
new transformer.TRF_280589 Phases=3,Windings=2,Buses=[BMT99097784.1.2.3 BBT2181908.1.2.3.0],Conns=[delta wye],kvs=[13.800000000 0.22],kvas=[75.000000000 75.000000000],Taps=[1,1.000000000],XHL=3.720000000,%loadloss=1.470000000,%noloadloss=0.393000000
new transformer.TRF_280610 Phases=3,Windings=2,Buses=[BMT179262618.1.2.3 BBT2182104.1.2.3.0],Conns=[delta wye],kvs=[13.800000000 0.22],kvas=[30.000000000 30.000000000],Taps=[1,1.000000000],XHL=3.560000000,%loadloss=1.820000000,%noloadloss=0.500000000
new transformer.TRF_280750 Phases=3,Windings=2,Buses=[BMT99095313.1.2.3 BBT2182867.1.2.3.0],Conns=[delta wye],kvs=[13.800000000 0.22],kvas=[75.000000000 75.000000000],Taps=[1,1.000000000],XHL=3.720000000,%loadloss=1.470000000,%noloadloss=0.393000000
new transformer.TRF_280757 Phases=3,Windings=2,Buses=[BMT150903137.1.2.3 BBT2182979.1.2.3.0],Conns=[delta wye],kvs=[13.800000000 0.22],kvas=[75.000000000 75.000000000],Taps=[1,1.000000000],XHL=3.720000000,%loadloss=1.470000000,%noloadloss=0.393000000
new transformer.TRF_280771 Phases=3,Windings=2,Buses=[BMT121666736.1.2.3 BBT2183063.1.2.3.0],Conns=[delta wye],kvs=[13.800000000 0.22],kvas=[75.000000000 75.000000000],Taps=[1,1.000000000],XHL=3.720000000,%loadloss=1.470000000,%noloadloss=0.393000000
new transformer.TRF_280848 Phases=3,Windings=2,Buses=[BMT121666701.1.2.3 BBT2183504.1.2.3.0],Conns=[delta wye],kvs=[13.800000000 0.22],kvas=[100.000000000 100.000000000],Taps=[1,1.000000000],XHL=3.770000000,%loadloss=1.330000000,%noloadloss=0.390000000
new transformer.TRF_280855 Phases=3,Windings=2,Buses=[BMT99095348.1.2.3 BBT2183560.1.2.3.0],Conns=[delta wye],kvs=[13.800000000 0.22],kvas=[150.000000000 150.000000000],Taps=[1,1.000000000],XHL=3.810000000,%loadloss=1.230000000,%noloadloss=0.323000000
new transformer.TRF_280862 Phases=3,Windings=2,Buses=[BMT121666757.1.2.3 BBT2183574.1.2.3.0],Conns=[delta wye],kvs=[13.800000000 0.22],kvas=[75.000000000 75.000000000],Taps=[1,1.000000000],XHL=3.720000000,%loadloss=1.470000000,%noloadloss=0.393000000
new transformer.TRF_281065 Phases=3,Windings=2,Buses=[BMT168080735.1.2.3 BBT2185331.1.2.3.0],Conns=[delta wye],kvs=[13.800000000 0.22],kvas=[15.000000000 15.000000000],Taps=[1,1.000000000],XHL=3.360000000,%loadloss=2.170000000,%noloadloss=0.566000000
new transformer.TRF_281079 Phases=3,Windings=2,Buses=[BMT99097728.1.2.3 BBT2185492.1.2.3.0],Conns=[delta wye],kvs=[13.800000000 0.22],kvas=[15.000000000 15.000000000],Taps=[1,1.000000000],XHL=3.360000000,%loadloss=2.170000000,%noloadloss=0.566000000
new transformer.TRF_284887 Phases=3,Windings=2,Buses=[BMT179262548.1.2.3 BBT2210293.1.2.3.0],Conns=[delta wye],kvs=[13.800000000 0.22],kvas=[45.000000000 45.000000000],Taps=[1,1.000000000],XHL=3.640000000,%loadloss=1.670000000,%noloadloss=0.433000000
new transformer.TRF_285118 Phases=3,Windings=2,Buses=[BMT149875088.1.2.3 BBT2212064.1.2.3.0],Conns=[delta wye],kvs=[13.800000000 0.22],kvas=[100.000000000 100.000000000],Taps=[1,1.000000000],XHL=3.770000000,%loadloss=1.330000000,%noloadloss=0.390000000
new transformer.TRF_316303 Phases=3,Windings=2,Buses=[BMT136291451.1.2.3 BBT2396675.1.2.3.0],Conns=[delta wye],kvs=[13.800000000 0.22],kvas=[100.000000000 100.000000000],Taps=[1,1.000000000],XHL=3.770000000,%loadloss=1.330000000,%noloadloss=0.390000000
new transformer.TRF_316492 Phases=3,Windings=2,Buses=[BMT160518595.1.2.3 BBT2397459.1.2.3.0],Conns=[delta wye],kvs=[13.800000000 0.22],kvas=[75.000000000 75.000000000],Taps=[1,1.000000000],XHL=3.720000000,%loadloss=1.470000000,%noloadloss=0.393000000
new transformer.TRF_316660 Phases=3,Windings=2,Buses=[BMT169512355.1.2.3 BBT2398474.1.2.3.0],Conns=[delta wye],kvs=[13.800000000 0.22],kvas=[30.000000000 30.000000000],Taps=[1,1.000000000],XHL=3.560000000,%loadloss=1.820000000,%noloadloss=0.500000000
new transformer.TRF_320727 Phases=3,Windings=2,Buses=[BMT148407803.1.2.3 BBT2424990.1.2.3.0],Conns=[delta wye],kvs=[13.800000000 0.22],kvas=[150.000000000 150.000000000],Taps=[1,1.000000000],XHL=3.810000000,%loadloss=1.230000000,%noloadloss=0.323000000
new transformer.TRF_321154 Phases=3,Windings=2,Buses=[BMT160956145.1.2.3 BBT2427790.1.2.3.0],Conns=[delta wye],kvs=[13.800000000 0.22],kvas=[30.000000000 30.000000000],Taps=[1,1.000000000],XHL=3.560000000,%loadloss=1.820000000,%noloadloss=0.500000000
new transformer.TRF_326131 Phases=3,Windings=2,Buses=[BMT170043696.1.2.3 BBT2460998.1.2.3.0],Conns=[delta wye],kvs=[13.800000000 0.22],kvas=[225.000000000 225.000000000],Taps=[1,1.000000000],XHL=4.860000000,%loadloss=1.160000000,%noloadloss=0.288000000
new transformer.TRF_326250 Phases=3,Windings=2,Buses=[BMT170043695.1.2.3 BBT2461719.1.2.3.0],Conns=[delta wye],kvs=[13.800000000 0.22],kvas=[75.000000000 75.000000000],Taps=[1,1.000000000],XHL=3.720000000,%loadloss=1.470000000,%noloadloss=0.393000000
new transformer.TRF_326446 Phases=3,Windings=2,Buses=[BMT166225954.1.2.3 BBT2463084.1.2.3.0],Conns=[delta wye],kvs=[13.800000000 0.22],kvas=[150.000000000 150.000000000],Taps=[1,1.000000000],XHL=3.810000000,%loadloss=1.230000000,%noloadloss=0.323000000
new transformer.TRF_1237273 Phases=3,Windings=2,Buses=[BMT99096454.1.2.3 BBT55317852.1.2.3.0],Conns=[delta wye],kvs=[13.800000000 0.22],kvas=[150.000000000 150.000000000],Taps=[1,1.000000000],XHL=3.810000000,%loadloss=1.230000000,%noloadloss=0.323000000
new transformer.TRF_1260863 Phases=3,Windings=2,Buses=[BMT177033925.1.2.3 BBT65469952.1.2.3.0],Conns=[delta wye],kvs=[13.800000000 0.22],kvas=[75.000000000 75.000000000],Taps=[1,1.000000000],XHL=3.720000000,%loadloss=1.470000000,%noloadloss=0.393000000
new transformer.TRF_1342252 Phases=3,Windings=2,Buses=[BMT153766856.1.2.3 BBT109653371.1.2.3.0],Conns=[delta wye],kvs=[13.800000000 0.22],kvas=[75.000000000 75.000000000],Taps=[1,1.000000000],XHL=3.720000000,%loadloss=1.470000000,%noloadloss=0.393000000
new transformer.TRF_1467206 Phases=3,Windings=2,Buses=[BMT166225955.1.2.3 BBT165944919.1.2.3.0],Conns=[delta wye],kvs=[13.800000000 0.22],kvas=[75.000000000 75.000000000],Taps=[1,1.000000000],XHL=3.720000000,%loadloss=1.470000000,%noloadloss=0.393000000
new transformer.TRF_278615 Phases=3,Windings=2,Buses=[BMT163376357.1.2.3 BBT2166403.1.2.3.0],Conns=[delta wye],kvs=[13.800000000 0.22],kvas=[75.000000000 75.000000000],Taps=[1,1.000000000],XHL=3.720000000,%loadloss=1.470000000,%noloadloss=0.393000000
new transformer.TRF_278671 Phases=3,Windings=2,Buses=[BMT99097882.1.2.3 BBT2166921.1.2.3.0],Conns=[delta wye],kvs=[13.800000000 0.22],kvas=[100.000000000 100.000000000],Taps=[1,1.000000000],XHL=3.770000000,%loadloss=1.330000000,%noloadloss=0.390000000
new transformer.TRF_278748 Phases=3,Windings=2,Buses=[BMT150903133.1.2.3 BBT2167320.1.2.3.0],Conns=[delta wye],kvs=[13.800000000 0.22],kvas=[75.000000000 75.000000000],Taps=[1,1.000000000],XHL=3.720000000,%loadloss=1.470000000,%noloadloss=0.393000000
new transformer.TRF_278839 Phases=3,Windings=2,Buses=[BMT177033921.1.2.3 BBT2168594.1.2.3.0],Conns=[delta wye],kvs=[13.800000000 0.22],kvas=[300.000000000 300.000000000],Taps=[1,1.000000000],XHL=4.880000000,%loadloss=1.080000000,%noloadloss=0.270000000
new transformer.TRF_278944 Phases=3,Windings=2,Buses=[BMT177033915.1.2.3 BBT2169378.1.2.3.0],Conns=[delta wye],kvs=[13.800000000 0.22],kvas=[150.000000000 150.000000000],Taps=[1,1.000000000],XHL=3.810000000,%loadloss=1.230000000,%noloadloss=0.323000000
new transformer.TRF_279140 Phases=3,Windings=2,Buses=[BMT148822197.1.2.3 BBT2170778.1.2.3.0],Conns=[delta wye],kvs=[13.800000000 0.22],kvas=[75.000000000 75.000000000],Taps=[1,1.000000000],XHL=3.720000000,%loadloss=1.470000000,%noloadloss=0.393000000
new transformer.TRF_286084 Phases=3,Windings=2,Buses=[BMT177524677.1.2.3 BBT2219456.1.2.3.0],Conns=[delta wye],kvs=[13.800000000 0.22],kvas=[45.000000000 45.000000000],Taps=[1,1.000000000],XHL=3.640000000,%loadloss=1.670000000,%noloadloss=0.433000000
new transformer.TRF_286287 Phases=3,Windings=2,Buses=[BMT149875087.1.2.3 BBT2220646.1.2.3.0],Conns=[delta wye],kvs=[13.800000000 0.22],kvas=[45.000000000 45.000000000],Taps=[1,1.000000000],XHL=3.640000000,%loadloss=1.670000000,%noloadloss=0.433000000
new transformer.TRF_319649 Phases=3,Windings=2,Buses=[BMT136291479.1.2.3 BBT2418011.1.2.3.0],Conns=[delta wye],kvs=[13.800000000 0.22],kvas=[45.000000000 45.000000000],Taps=[1,1.000000000],XHL=3.640000000,%loadloss=1.670000000,%noloadloss=0.433000000
new transformer.TRF_319740 Phases=3,Windings=2,Buses=[BMT99095817.1.2.3 BBT2418914.1.2.3.0],Conns=[delta wye],kvs=[13.800000000 0.22],kvas=[150.000000000 150.000000000],Taps=[1,1.000000000],XHL=3.810000000,%loadloss=1.230000000,%noloadloss=0.323000000
new transformer.TRF_319845 Phases=3,Windings=2,Buses=[BMT175476439.1.2.3 BBT2419565.1.2.3.0],Conns=[delta wye],kvs=[13.800000000 0.22],kvas=[100.000000000 100.000000000],Taps=[1,1.000000000],XHL=3.770000000,%loadloss=1.330000000,%noloadloss=0.390000000
new transformer.TRF_319901 Phases=3,Windings=2,Buses=[BMT168223345.1.2.3 BBT2419908.1.2.3.0],Conns=[delta wye],kvs=[13.800000000 0.22],kvas=[30.000000000 30.000000000],Taps=[1,1.000000000],XHL=3.560000000,%loadloss=1.820000000,%noloadloss=0.500000000
new transformer.TRF_326831 Phases=3,Windings=2,Buses=[BMT163376360.1.2.3 BBT2465625.1.2.3.0],Conns=[delta wye],kvs=[13.800000000 0.22],kvas=[75.000000000 75.000000000],Taps=[1,1.000000000],XHL=3.720000000,%loadloss=1.470000000,%noloadloss=0.393000000
new transformer.TRF_326922 Phases=3,Windings=2,Buses=[BMT163376361.1.2.3 BBT2466521.1.2.3.0],Conns=[delta wye],kvs=[13.800000000 0.22],kvas=[75.000000000 75.000000000],Taps=[1,1.000000000],XHL=3.720000000,%loadloss=1.470000000,%noloadloss=0.393000000
new transformer.TRF_327153 Phases=3,Windings=2,Buses=[BMT153766859.1.2.3 BBT2467858.1.2.3.0],Conns=[delta wye],kvs=[13.800000000 0.22],kvas=[75.000000000 75.000000000],Taps=[1,1.000000000],XHL=3.720000000,%loadloss=1.470000000,%noloadloss=0.393000000
new transformer.TRF_327244 Phases=3,Windings=2,Buses=[BMT163226045.1.2.3 BBT2468600.1.2.3.0],Conns=[delta wye],kvs=[13.800000000 0.22],kvas=[75.000000000 75.000000000],Taps=[1,1.000000000],XHL=3.720000000,%loadloss=1.470000000,%noloadloss=0.393000000
new transformer.TRF_327349 Phases=3,Windings=2,Buses=[BMT160956140.1.2.3 BBT2469356.1.2.3.0],Conns=[delta wye],kvs=[13.800000000 0.22],kvas=[75.000000000 75.000000000],Taps=[1,1.000000000],XHL=3.720000000,%loadloss=1.470000000,%noloadloss=0.393000000
new transformer.TRF_1306209 Phases=3,Windings=2,Buses=[BMT153766854.1.2.3 BBT83892944.1.2.3.0],Conns=[delta wye],kvs=[13.800000000 0.22],kvas=[75.000000000 75.000000000],Taps=[1,1.000000000],XHL=3.720000000,%loadloss=1.470000000,%noloadloss=0.393000000
new transformer.TRF_1398076 Phases=3,Windings=2,Buses=[BMT149875092.1.2.3 BBT149875114.1.2.3.0],Conns=[delta wye],kvs=[13.800000000 0.22],kvas=[45.000000000 45.000000000],Taps=[1,1.000000000],XHL=3.640000000,%loadloss=1.670000000,%noloadloss=0.433000000
new transformer.TRF_277817 Phases=3,Windings=2,Buses=[BMT152082972.1.2.3 BBT2159109.1.2.3.0],Conns=[delta wye],kvs=[13.800000000 0.22],kvas=[45.000000000 45.000000000],Taps=[1,1.000000000],XHL=3.640000000,%loadloss=1.670000000,%noloadloss=0.433000000
new transformer.TRF_277971 Phases=3,Windings=2,Buses=[BMT177033918.1.2.3 BBT2160327.1.2.3.0],Conns=[delta wye],kvs=[13.800000000 0.22],kvas=[45.000000000 45.000000000],Taps=[1,1.000000000],XHL=3.640000000,%loadloss=1.670000000,%noloadloss=0.433000000
new transformer.TRF_278048 Phases=3,Windings=2,Buses=[BMT177033920.1.2.3 BBT2160880.1.2.3.0],Conns=[delta wye],kvs=[13.800000000 0.22],kvas=[100.000000000 100.000000000],Taps=[1,1.000000000],XHL=3.770000000,%loadloss=1.330000000,%noloadloss=0.390000000
new transformer.TRF_278069 Phases=3,Windings=2,Buses=[BMT148822194.1.2.3 BBT2161258.1.2.3.0],Conns=[delta wye],kvs=[13.800000000 0.22],kvas=[100.000000000 100.000000000],Taps=[1,1.000000000],XHL=3.770000000,%loadloss=1.330000000,%noloadloss=0.390000000
new transformer.TRF_278076 Phases=3,Windings=2,Buses=[BMT163226046.1.2.3 BBT2161412.1.2.3.0],Conns=[delta wye],kvs=[13.800000000 0.22],kvas=[75.000000000 75.000000000],Taps=[1,1.000000000],XHL=3.720000000,%loadloss=1.470000000,%noloadloss=0.393000000
new transformer.TRF_278349 Phases=3,Windings=2,Buses=[BMT170043700.1.2.3 BBT2164156.1.2.3.0],Conns=[delta wye],kvs=[13.800000000 0.22],kvas=[75.000000000 75.000000000],Taps=[1,1.000000000],XHL=3.720000000,%loadloss=1.470000000,%noloadloss=0.393000000
new transformer.TRF_282591 Phases=3,Windings=2,Buses=[BMT124301200.1.2.3 BBT2196531.1.2.3.0],Conns=[delta wye],kvs=[13.800000000 0.22],kvas=[100.000000000 100.000000000],Taps=[1,1.000000000],XHL=3.770000000,%loadloss=1.330000000,%noloadloss=0.390000000
new transformer.TRF_282626 Phases=3,Windings=2,Buses=[BMT151308269.1.2.3 BBT2196755.1.2.3.0],Conns=[delta wye],kvs=[13.800000000 0.22],kvas=[75.000000000 75.000000000],Taps=[1,1.000000000],XHL=3.720000000,%loadloss=1.470000000,%noloadloss=0.393000000
new transformer.TRF_282864 Phases=3,Windings=2,Buses=[BMT124300367.1.2.3 BBT2198456.1.2.3.0],Conns=[delta wye],kvs=[13.800000000 0.22],kvas=[75.000000000 75.000000000],Taps=[1,1.000000000],XHL=3.720000000,%loadloss=1.470000000,%noloadloss=0.393000000
new transformer.TRF_282997A Phases=1,Windings=3,Buses=[BMT149875090.2 BBT2199177.1.0 BBT2199177.0.2],Conns=[wye wye wye],kvs=[7.967 0.12 0.12],kvas=[35.000000000 35.000000000 35.000000000],Taps=[1,1.000000000,1.000000000],XHL=2.060000000,XHT=2.060000000,XLT=1.648000000,%loadloss=1.410000000,%noloadloss=0.385000000
new transformer.TRF_318060 Phases=3,Windings=2,Buses=[BMT160518322.1.2.3 BBT2407819.1.2.3.0],Conns=[delta wye],kvs=[13.800000000 0.22],kvas=[75.000000000 75.000000000],Taps=[1,1.000000000],XHL=3.720000000,%loadloss=1.470000000,%noloadloss=0.393000000
new transformer.TRF_318312 Phases=3,Windings=2,Buses=[BMT160518324.1.2.3 BBT2409471.1.2.3.0],Conns=[delta wye],kvs=[13.800000000 0.22],kvas=[150.000000000 150.000000000],Taps=[1,1.000000000],XHL=3.810000000,%loadloss=1.230000000,%noloadloss=0.323000000
new transformer.TRF_322743 Phases=3,Windings=2,Buses=[BMT177109384.1.2.3 BBT2438101.1.2.3.0],Conns=[delta wye],kvs=[13.800000000 0.22],kvas=[75.000000000 75.000000000],Taps=[1,1.000000000],XHL=3.720000000,%loadloss=1.470000000,%noloadloss=0.393000000
new transformer.TRF_322939 Phases=3,Windings=2,Buses=[BMT99096069.1.2.3 BBT2439403.1.2.3.0],Conns=[delta wye],kvs=[13.800000000 0.22],kvas=[100.000000000 100.000000000],Taps=[1,1.000000000],XHL=3.770000000,%loadloss=1.330000000,%noloadloss=0.390000000
new transformer.TRF_323380 Phases=3,Windings=2,Buses=[BMT160518327.1.2.3 BBT2442280.1.2.3.0],Conns=[delta wye],kvs=[13.800000000 0.22],kvas=[45.000000000 45.000000000],Taps=[1,1.000000000],XHL=3.640000000,%loadloss=1.670000000,%noloadloss=0.433000000
new transformer.TRF_327391 Phases=3,Windings=2,Buses=[BMT170043697.1.2.3 BBT2469650.1.2.3.0],Conns=[delta wye],kvs=[13.800000000 0.22],kvas=[75.000000000 75.000000000],Taps=[1,1.000000000],XHL=3.720000000,%loadloss=1.470000000,%noloadloss=0.393000000
new transformer.TRF_327538 Phases=3,Windings=2,Buses=[BMT178705443.1.2.3 BBT2470406.1.2.3.0],Conns=[delta wye],kvs=[13.800000000 0.22],kvas=[75.000000000 75.000000000],Taps=[1,1.000000000],XHL=3.720000000,%loadloss=1.470000000,%noloadloss=0.393000000
new transformer.TRF_327895 Phases=3,Windings=2,Buses=[BMT99097672.1.2.3 BBT2472562.1.2.3.0],Conns=[delta wye],kvs=[13.800000000 0.22],kvas=[75.000000000 75.000000000],Taps=[1,1.000000000],XHL=3.720000000,%loadloss=1.470000000,%noloadloss=0.393000000
new transformer.TRF_414443 Phases=3,Windings=2,Buses=[BMT160518326.1.2.3 BBT3969393.1.2.3.0],Conns=[delta wye],kvs=[13.800000000 0.22],kvas=[75.000000000 75.000000000],Taps=[1,1.000000000],XHL=3.720000000,%loadloss=1.470000000,%noloadloss=0.393000000
new transformer.TRF_1306692 Phases=3,Windings=2,Buses=[BMT99096055.1.2.3 BBT84487986.1.2.3.0],Conns=[delta wye],kvs=[13.800000000 0.22],kvas=[150.000000000 150.000000000],Taps=[1,1.000000000],XHL=3.810000000,%loadloss=1.230000000,%noloadloss=0.323000000
new transformer.TRF_1308645 Phases=3,Windings=2,Buses=[BMT148822196.1.2.3 BBT93313348.1.2.3.0],Conns=[delta wye],kvs=[13.800000000 0.22],kvas=[150.000000000 150.000000000],Taps=[1,1.000000000],XHL=3.810000000,%loadloss=1.230000000,%noloadloss=0.323000000
new transformer.TRF_1357932 Phases=3,Windings=2,Buses=[BMT121602511.1.2.3 BBT121602532.1.2.3.0],Conns=[delta wye],kvs=[13.800000000 0.22],kvas=[150.000000000 150.000000000],Taps=[1,1.000000000],XHL=3.810000000,%loadloss=1.230000000,%noloadloss=0.323000000
new transformer.TRF_1358009 Phases=3,Windings=2,Buses=[BMT133931758.1.2.3 BBT121660471.1.2.3.0],Conns=[delta wye],kvs=[13.800000000 0.22],kvas=[150.000000000 150.000000000],Taps=[1,1.000000000],XHL=3.810000000,%loadloss=1.230000000,%noloadloss=0.323000000
new transformer.TRF_1425519 Phases=3,Windings=2,Buses=[BMT177033926.1.2.3 BBT156246991.1.2.3.0],Conns=[delta wye],kvs=[13.800000000 0.22],kvas=[75.000000000 75.000000000],Taps=[1,1.000000000],XHL=3.720000000,%loadloss=1.470000000,%noloadloss=0.393000000
new transformer.TRF_277047 Phases=3,Windings=2,Buses=[BMT149353728.1.2.3 BBT2154118.1.2.3.0],Conns=[delta wye],kvs=[13.800000000 0.22],kvas=[75.000000000 75.000000000],Taps=[1,1.000000000],XHL=3.720000000,%loadloss=1.470000000,%noloadloss=0.393000000
new transformer.TRF_281898 Phases=3,Windings=2,Buses=[BMT168080739.1.2.3 BBT2192044.1.2.3.0],Conns=[delta wye],kvs=[13.800000000 0.22],kvas=[75.000000000 75.000000000],Taps=[1,1.000000000],XHL=3.720000000,%loadloss=1.470000000,%noloadloss=0.393000000
new transformer.TRF_282031 Phases=3,Windings=2,Buses=[BMT99097903.1.2.3 BBT2192835.1.2.3.0],Conns=[delta wye],kvs=[13.800000000 0.22],kvas=[45.000000000 45.000000000],Taps=[1,1.000000000],XHL=3.640000000,%loadloss=1.670000000,%noloadloss=0.433000000
new transformer.TRF_282080 Phases=3,Windings=2,Buses=[BMT168080738.1.2.3 BBT2192954.1.2.3.0],Conns=[delta wye],kvs=[13.800000000 0.22],kvas=[45.000000000 45.000000000],Taps=[1,1.000000000],XHL=3.640000000,%loadloss=1.670000000,%noloadloss=0.433000000
new transformer.TRF_282332 Phases=3,Windings=2,Buses=[BMT99097665.1.2.3 BBT2194326.1.2.3.0],Conns=[delta wye],kvs=[13.800000000 0.22],kvas=[75.000000000 75.000000000],Taps=[1,1.000000000],XHL=3.720000000,%loadloss=1.470000000,%noloadloss=0.393000000
new transformer.TRF_282437 Phases=3,Windings=2,Buses=[BMT179262615.1.2.3 BBT2195047.1.2.3.0],Conns=[delta wye],kvs=[13.800000000 0.22],kvas=[75.000000000 75.000000000],Taps=[1,1.000000000],XHL=3.720000000,%loadloss=1.470000000,%noloadloss=0.393000000
new transformer.TRF_318795 Phases=3,Windings=2,Buses=[BMT175476441.1.2.3 BBT2412054.1.2.3.0],Conns=[delta wye],kvs=[13.800000000 0.22],kvas=[75.000000000 75.000000000],Taps=[1,1.000000000],XHL=3.720000000,%loadloss=1.470000000,%noloadloss=0.393000000
new transformer.TRF_318858 Phases=3,Windings=2,Buses=[BMT168223349.1.2.3 BBT2412376.1.2.3.0],Conns=[delta wye],kvs=[13.800000000 0.22],kvas=[75.000000000 75.000000000],Taps=[1,1.000000000],XHL=3.720000000,%loadloss=1.470000000,%noloadloss=0.393000000
new transformer.TRF_318921 Phases=3,Windings=2,Buses=[BMT136291472.1.2.3 BBT2412887.1.2.3.0],Conns=[delta wye],kvs=[13.800000000 0.22],kvas=[75.000000000 75.000000000],Taps=[1,1.000000000],XHL=3.720000000,%loadloss=1.470000000,%noloadloss=0.393000000
new transformer.TRF_323506 Phases=3,Windings=2,Buses=[BMT153767327.1.2.3 BBT2443015.1.2.3.0],Conns=[delta wye],kvs=[13.800000000 0.22],kvas=[75.000000000 75.000000000],Taps=[1,1.000000000],XHL=3.720000000,%loadloss=1.470000000,%noloadloss=0.393000000
new transformer.TRF_323653 Phases=3,Windings=2,Buses=[BMT177109385.1.2.3 BBT2443764.1.2.3.0],Conns=[delta wye],kvs=[13.800000000 0.22],kvas=[30.000000000 30.000000000],Taps=[1,1.000000000],XHL=3.560000000,%loadloss=1.820000000,%noloadloss=0.500000000
new transformer.TRF_323667 Phases=3,Windings=2,Buses=[BMT99096881.1.2.3 BBT2443883.1.2.3.0],Conns=[delta wye],kvs=[13.800000000 0.22],kvas=[30.000000000 30.000000000],Taps=[1,1.000000000],XHL=3.560000000,%loadloss=1.820000000,%noloadloss=0.500000000
new transformer.TRF_323681 Phases=3,Windings=2,Buses=[BMT107490259.1.2.3 BBT2443974.1.2.3.0],Conns=[delta wye],kvs=[13.800000000 0.22],kvas=[75.000000000 75.000000000],Taps=[1,1.000000000],XHL=3.720000000,%loadloss=1.470000000,%noloadloss=0.393000000
new transformer.TRF_323856 Phases=3,Windings=2,Buses=[BMT99096083.1.2.3 BBT2444989.1.2.3.0],Conns=[delta wye],kvs=[13.800000000 0.22],kvas=[75.000000000 75.000000000],Taps=[1,1.000000000],XHL=3.720000000,%loadloss=1.470000000,%noloadloss=0.393000000
new transformer.TRF_359409 Phases=3,Windings=2,Buses=[BMT170043704.1.2.3 BBT2817214.1.2.3.0],Conns=[delta wye],kvs=[13.800000000 0.22],kvas=[75.000000000 75.000000000],Taps=[1,1.000000000],XHL=3.720000000,%loadloss=1.470000000,%noloadloss=0.393000000
new transformer.TRF_366031 Phases=3,Windings=2,Buses=[BMT168080743.1.2.3 BBT2964256.1.2.3.0],Conns=[delta wye],kvs=[13.800000000 0.22],kvas=[45.000000000 45.000000000],Taps=[1,1.000000000],XHL=3.640000000,%loadloss=1.670000000,%noloadloss=0.433000000
new transformer.TRF_1280288 Phases=3,Windings=2,Buses=[BMT160518325.1.2.3 BBT74379958.1.2.3.0],Conns=[delta wye],kvs=[13.800000000 0.22],kvas=[75.000000000 75.000000000],Taps=[1,1.000000000],XHL=3.720000000,%loadloss=1.470000000,%noloadloss=0.393000000
new transformer.TRF_1319999 Phases=3,Windings=2,Buses=[BMT148407809.1.2.3 BBT93383334.1.2.3.0],Conns=[delta wye],kvs=[13.800000000 0.22],kvas=[150.000000000 150.000000000],Taps=[1,1.000000000],XHL=3.810000000,%loadloss=1.230000000,%noloadloss=0.323000000
new transformer.TRF_1350484 Phases=3,Windings=2,Buses=[BMT160521509.1.2.3 BBT115510831.1.2.3.0],Conns=[delta wye],kvs=[13.800000000 0.22],kvas=[300.000000000 300.000000000],Taps=[1,1.000000000],XHL=4.880000000,%loadloss=1.080000000,%noloadloss=0.270000000
new transformer.TRF_1352255 Phases=3,Windings=2,Buses=[BMT163226043.1.2.3 BBT117226797.1.2.3.0],Conns=[delta wye],kvs=[13.800000000 0.22],kvas=[150.000000000 150.000000000],Taps=[1,1.000000000],XHL=3.810000000,%loadloss=1.230000000,%noloadloss=0.323000000
new transformer.TRF_365506 Phases=3,Windings=2,Buses=[BMT160521508.1.2.3 BBT2934303.1.2.3.0],Conns=[delta wye],kvs=[13.800000000 0.22],kvas=[75.000000000 75.000000000],Taps=[1,1.000000000],XHL=3.720000000,%loadloss=1.470000000,%noloadloss=0.393000000
new transformer.TRF_325347 Phases=3,Windings=2,Buses=[BMT107490266.1.2.3 BBT2455272.1.2.3.0],Conns=[delta wye],kvs=[13.800000000 0.22],kvas=[100.000000000 100.000000000],Taps=[1,1.000000000],XHL=3.770000000,%loadloss=1.330000000,%noloadloss=0.390000000
new transformer.TRF_325368 Phases=3,Windings=2,Buses=[BMT99097042.1.2.3 BBT2455545.1.2.3.0],Conns=[delta wye],kvs=[13.800000000 0.22],kvas=[75.000000000 75.000000000],Taps=[1,1.000000000],XHL=3.720000000,%loadloss=1.470000000,%noloadloss=0.393000000
new transformer.TRF_321651 Phases=3,Windings=2,Buses=[BMT121602525.1.2.3 BBT2431122.1.2.3.0],Conns=[delta wye],kvs=[13.800000000 0.22],kvas=[150.000000000 150.000000000],Taps=[1,1.000000000],XHL=3.810000000,%loadloss=1.230000000,%noloadloss=0.323000000
new transformer.TRF_326033 Phases=3,Windings=2,Buses=[BMT160956141.1.2.3 BBT2460508.1.2.3.0],Conns=[delta wye],kvs=[13.800000000 0.22],kvas=[30.000000000 30.000000000],Taps=[1,1.000000000],XHL=3.560000000,%loadloss=1.820000000,%noloadloss=0.500000000
new transformer.TRF_389551 Phases=3,Windings=2,Buses=[BMT121666729.1.2.3 BBT3488304.1.2.3.0],Conns=[delta wye],kvs=[13.800000000 0.22],kvas=[75.000000000 75.000000000],Taps=[1,1.000000000],XHL=3.720000000,%loadloss=1.470000000,%noloadloss=0.393000000
new transformer.TRF_401248 Phases=3,Windings=2,Buses=[BMT177109386.1.2.3 BBT3619162.1.2.3.0],Conns=[delta wye],kvs=[13.800000000 0.22],kvas=[75.000000000 75.000000000],Taps=[1,1.000000000],XHL=3.720000000,%loadloss=1.470000000,%noloadloss=0.393000000
new transformer.TRF_327356 Phases=3,Windings=2,Buses=[BMT170043705.1.2.3 BBT2469412.1.2.3.0],Conns=[delta wye],kvs=[13.800000000 0.22],kvas=[100.000000000 100.000000000],Taps=[1,1.000000000],XHL=3.770000000,%loadloss=1.330000000,%noloadloss=0.390000000
new transformer.TRF_373269 Phases=3,Windings=2,Buses=[BMT177033922.1.2.3 BBT3220253.1.2.3.0],Conns=[delta wye],kvs=[13.800000000 0.22],kvas=[75.000000000 75.000000000],Taps=[1,1.000000000],XHL=3.720000000,%loadloss=1.470000000,%noloadloss=0.393000000
new transformer.TRF_383972 Phases=3,Windings=2,Buses=[BMT169512353.1.2.3 BBT3412522.1.2.3.0],Conns=[delta wye],kvs=[13.800000000 0.22],kvas=[150.000000000 150.000000000],Taps=[1,1.000000000],XHL=3.810000000,%loadloss=1.230000000,%noloadloss=0.323000000
new transformer.TRF_399043 Phases=3,Windings=2,Buses=[BMT160521505.1.2.3 BBT3599275.1.2.3.0],Conns=[delta wye],kvs=[13.800000000 0.22],kvas=[100.000000000 100.000000000],Taps=[1,1.000000000],XHL=3.770000000,%loadloss=1.330000000,%noloadloss=0.390000000
new transformer.TRF_384973 Phases=3,Windings=2,Buses=[BMT168080741.1.2.3 BBT3422084.1.2.3.0],Conns=[delta wye],kvs=[13.800000000 0.22],kvas=[45.000000000 45.000000000],Taps=[1,1.000000000],XHL=3.640000000,%loadloss=1.670000000,%noloadloss=0.433000000
