2024_89_CemigReconfigurationCases/1_AlimsCemig/BHMR09/BHMR09SegmentosBT.dss
new line.SBT_10877840 bus1=BBT3368107.1.2.3.0,bus2=BBT2427825.1.2.3.0,Phases=3,Linecode=BT803_BT803_4_3_4_3,Length=0.020814000,Units=km
new line.SBT_11636080 bus1=BBT3498048.1.2.3.0,bus2=BBT2214451.1.2.3.0,Phases=3,Linecode=BT514_BT513_5_3_1_3,Length=0.017093000,Units=km
new line.SBT_11929940 bus1=BBT3599814.1.2.3.0,bus2=BBT3599821.1.2.3.0,Phases=3,Linecode=BT514_BT509_7_3_1_3,Length=0.000501000,Units=km
new line.SBT_12512998 bus1=BBT3930081.1.2.3.0,bus2=BBT3930088.1.2.3.0,Phases=3,Linecode=BT513_BT513_7_3_1_3,Length=0.000501000,Units=km
new line.SBT_12513089 bus1=BBT4119431.1.2.3.0,bus2=BBT4119438.1.2.3.0,Phases=3,Linecode=BT513_BT513_7_3_1_3,Length=0.000501000,Units=km
new line.SBT_12685415 bus1=BBT4002636.1.2.0,bus2=BBT4002643.1.2.0,Phases=2,Linecode=BT503_BT503_5_2_1_2,Length=0.008547000,Units=km
new line.SBT_12685422 bus1=BBT4002636.1.2.0,bus2=BBT4002650.1.2.0,Phases=2,Linecode=BT503_BT503_5_2_1_2,Length=0.004002000,Units=km
new line.SBT_12685702 bus1=BBT4002629.1.2.0,bus2=BBT4002636.1.2.0,Phases=2,Linecode=BT503_BT503_5_2_1_2,Length=0.005833000,Units=km
new line.SBT_12685772 bus1=BBT4002643.1.2.0,bus2=BBT4002671.1.2.0,Phases=2,Linecode=BT503_BT503_5_2_1_2,Length=0.009003000,Units=km
new line.SBT_12685793 bus1=BBT4002650.1.2.0,bus2=BBT4002657.1.2.0,Phases=2,Linecode=BT503_BT503_5_2_1_2,Length=0.010053000,Units=km
new line.SBT_12685814 bus1=BBT4002657.1.2.0,bus2=BBT4002664.1.2.0,Phases=2,Linecode=BT503_BT503_5_2_1_2,Length=0.013605000,Units=km
new line.SBT_12685849 bus1=BBT4002671.1.2.0,bus2=BBT4002678.1.2.0,Phases=2,Linecode=BT503_BT503_5_2_1_2,Length=0.007002000,Units=km
new line.SBT_12685856 bus1=BBT4002671.1.2.0,bus2=BBT4002685.1.2.0,Phases=2,Linecode=BT503_BT503_5_2_1_2,Length=0.015269000,Units=km
new line.SBT_12685884 bus1=BBT4002685.1.2.0,bus2=BBT4002692.1.2.0,Phases=2,Linecode=BT503_BT503_5_2_1_2,Length=0.005833000,Units=km
new line.SBT_12685891 bus1=BBT4002685.1.2.0,bus2=BBT4002699.1.2.0,Phases=2,Linecode=BT503_BT503_5_2_1_2,Length=0.008947000,Units=km
new line.SBT_12685912 bus1=BBT4002706.1.2.0,bus2=BBT4002713.1.2.0,Phases=2,Linecode=BT503_BT503_5_2_1_2,Length=0.007813000,Units=km
new line.SBT_12685933 bus1=BBT4002699.1.2.0,bus2=BBT4002706.1.2.0,Phases=2,Linecode=BT503_BT503_5_2_1_2,Length=0.009003000,Units=km
new line.SBT_13172139 bus1=BBT4099922.1.2.3.0,bus2=BBT4099929.1.2.3.0,Phases=3,Linecode=BT810_BT810_4_3_4_3,Length=0.036807000,Units=km
new line.SBT_13172160 bus1=BBT4099747.1.2.3.0,bus2=BBT4099922.1.2.3.0,Phases=3,Linecode=BT810_BT810_4_3_4_3,Length=0.037653000,Units=km
new line.SBT_13172181 bus1=BBT4099740.1.2.3.0,bus2=BBT4099747.1.2.3.0,Phases=3,Linecode=BT810_BT810_4_3_4_3,Length=0.037493000,Units=km
new line.SBT_13172209 bus1=BBT4099642.1.2.3.0,bus2=BBT4099740.1.2.3.0,Phases=3,Linecode=BT810_BT810_4_3_4_3,Length=0.038220000,Units=km
new line.SBT_13172216 bus1=BBT4099642.1.2.3.0,bus2=BBT4099684.1.2.3.0,Phases=3,Linecode=BT803_BT803_4_3_4_3,Length=0.016283000,Units=km
new line.SBT_13172223 bus1=BBT4099642.1.2.3.0,bus2=BBT4099649.1.2.3.0,Phases=3,Linecode=BT810_BT810_4_3_4_3,Length=0.026084000,Units=km
new line.SBT_13172454 bus1=BBT4099698.1.2.3.0,bus2=BBT4099705.1.2.3.0,Phases=3,Linecode=BT810_BT810_4_3_4_3,Length=0.039709000,Units=km
new line.SBT_13172482 bus1=BBT4099691.1.2.3.0,bus2=BBT4099698.1.2.3.0,Phases=3,Linecode=BT810_BT810_4_3_4_3,Length=0.029214000,Units=km
new line.SBT_13172503 bus1=BBT4099684.1.2.3.0,bus2=BBT4099691.1.2.3.0,Phases=3,Linecode=BT810_BT810_4_3_4_3,Length=0.028433000,Units=km
new line.SBT_13172531 bus1=BBT4099649.1.2.3.0,bus2=BBT4099656.1.2.3.0,Phases=3,Linecode=BT810_BT810_4_3_4_3,Length=0.025949000,Units=km
new line.SBT_1719999IP bus1=BBT2160355.1.2.0,bus2=BBT5001719999.1.2.0,Phases=2,Linecode=IP_2,Length=0.002840000,Units=km
new line.SBT_17210971 bus1=BBT2156701.1.2.3.0,bus2=BBT54165883.1.2.3.0,Phases=3,Linecode=BT805_BT805_4_3_4_3,Length=0.068428000,Units=km
new line.SBT_1721259IP bus1=BBT2161363.3.1.0,bus2=BBT5001721259.3.1.0,Phases=2,Linecode=IP_2,Length=0.002840000,Units=km
new line.SBT_1721385IP bus1=BBT117227231.2.3.0,bus2=BBT5001721385.2.3.0,Phases=2,Linecode=IP_2,Length=0.002960000,Units=km
new line.SBT_1721406IP bus1=BBT2161454.3.1.0,bus2=BBT5001721406.3.1.0,Phases=2,Linecode=IP_2,Length=0.002960000,Units=km
new line.SBT_17217327 bus1=BBT54489367.1.2.3.0,bus2=BBT54489374.1.2.3.0,Phases=3,Linecode=BT514_BT514_7_3_1_3,Length=0.000501000,Units=km
new line.SBT_17452926 bus1=BBT68497998.1.2.3.0,bus2=BBT68498005.1.2.3.0,Phases=3,Linecode=BT514_BT514_7_3_1_3,Length=0.000501000,Units=km
new line.SBT_1746235IP bus1=BBT2179843.1.2.0,bus2=BBT5001746235.1.2.0,Phases=2,Linecode=IP_2,Length=0.005530000,Units=km
new line.SBT_1747243IP bus1=BBT2180466.2.3.0,bus2=BBT5001747243.2.3.0,Phases=2,Linecode=IP_2,Length=0.005530000,Units=km
new line.SBT_1747285IP bus1=BBT2180473.3.1.0,bus2=BBT5001747285.3.1.0,Phases=2,Linecode=IP_2,Length=0.005530000,Units=km
...