2024_89_CemigReconfigurationCases/1_AlimsCemig/BHMR09/BHMR09Ramais.dss
new line.RBT_10045848 bus1=BBT2171072.1.2.3.0,bus2=RML1010045848.1.2.3.0,Phases=3,Linecode=CABBTG06_4_3_3,Length=0.029000000,Units=km
new line.RBT_10099566 bus1=BBT2447558.1.2.3.0,bus2=RML1010099566.1.2.3.0,Phases=3,Linecode=CABBTG06_4_3_3,Length=0.029000000,Units=km
new line.RBT_10099589 bus1=BBT2423933.1.2.3.0,bus2=RML1010099589.1.2.3.0,Phases=3,Linecode=CABBTG06_4_3_3,Length=0.017000000,Units=km
new line.RBT_10099633 bus1=BBT2454481.2.3.0,bus2=RML1010099633.2.3.0,Phases=2,Linecode=CABBTG05_4_2_2,Length=0.029000000,Units=km
new line.RBT_10099735 bus1=BBT3317126.1.2.3.0,bus2=RML1010099735.1.2.3.0,Phases=3,Linecode=CABBTG06_4_3_3,Length=0.029000000,Units=km
new line.RBT_10099737 bus1=BBT2183651.1.2.3.0,bus2=RML1010099737.1.2.3.0,Phases=3,Linecode=CABBTG06_4_3_3,Length=0.029000000,Units=km
new line.RBT_10128290 bus1=BBT2181922.2.3.0,bus2=RML1010128290.2.3.0,Phases=2,Linecode=CABBTG05_4_2_2,Length=0.029000000,Units=km
new line.RBT_10178383 bus1=BBT3617769.1.2.3.0,bus2=RML1010178383.1.2.3.0,Phases=3,Linecode=CABBTG07_4_3_3,Length=0.029000000,Units=km
new line.RBT_10272532 bus1=BBT2161349.1.2.3.0,bus2=RML1010272532.1.2.3.0,Phases=3,Linecode=CABBTG06_4_3_3,Length=0.029000000,Units=km
new line.RBT_10300538 bus1=BBT2174838.1.2.3.0,bus2=RML1010300538.1.2.3.0,Phases=3,Linecode=CABBTG06_4_3_3,Length=0.029000000,Units=km
new line.RBT_10302862 bus1=BBT2210349.1.2.0,bus2=RML1010302862.1.2.0,Phases=2,Linecode=CABBTG05_4_2_2,Length=0.029000000,Units=km
new line.RBT_10329922 bus1=BBT3586829.1.2.0,bus2=RML1010329922.1.2.0,Phases=2,Linecode=CABBTG05_4_2_2,Length=0.017000000,Units=km
new line.RBT_10409081 bus1=BBT2194340.1.2.3.0,bus2=RML1010409081.1.2.3.0,Phases=3,Linecode=CABBTG12_4_3_3,Length=0.029000000,Units=km
new line.RBT_10409144 bus1=BBT2934310.2.3.0,bus2=RML1010409144.2.3.0,Phases=2,Linecode=CABBTG05_4_2_2,Length=0.017000000,Units=km
new line.RBT_10440697 bus1=BBT2158556.1.2.3.0,bus2=RML1010440697.1.2.3.0,Phases=3,Linecode=CABBTG09_4_3_3,Length=0.029000000,Units=km
new line.RBT_10443069 bus1=BBT2443981.2.3.0,bus2=RML1010443069.2.3.0,Phases=2,Linecode=CABBTG05_4_2_2,Length=0.029000000,Units=km
new line.RBT_10471249 bus1=BBT4197586.1.2.3.0,bus2=RML1010471249.1.2.3.0,Phases=3,Linecode=CABBTG07_4_3_3,Length=0.029000000,Units=km
new line.RBT_10725933 bus1=BBT2169448.1.2.0,bus2=RML1010725933.1.2.0,Phases=2,Linecode=CABBTG05_4_2_2,Length=0.017000000,Units=km
new line.RBT_10853889 bus1=BBT2400350.1.2.3.0,bus2=RML1010853889.1.2.3.0,Phases=3,Linecode=CABBTG06_4_3_3,Length=0.017000000,Units=km
new line.RBT_10854826 bus1=BBT2178632.1.2.3.0,bus2=RML1010854826.1.2.3.0,Phases=3,Linecode=CABBTG06_4_3_3,Length=0.017000000,Units=km
new line.RBT_10912771 bus1=BBT2179850.1.0,bus2=RML1010912771.1.0,Phases=1,Linecode=CABBTG02_4_1_1,Length=0.017000000,Units=km
new line.RBT_11062290 bus1=BBT4587941.1.0,bus2=RML1011062290.1.0,Phases=1,Linecode=CABBTG02_4_1_1,Length=0.017000000,Units=km
new line.RBT_11212459 bus1=BBT2449637.2.3.0,bus2=RML1011212459.2.3.0,Phases=2,Linecode=CABBTG05_4_2_2,Length=0.029000000,Units=km
new line.RBT_11236341 bus1=BBT2180522.1.2.0,bus2=RML1011236341.1.2.0,Phases=2,Linecode=CABBTG05_4_2_2,Length=0.017000000,Units=km
new line.RBT_11237744 bus1=BBT2445010.1.2.0,bus2=RML1011237744.1.2.0,Phases=2,Linecode=CABBTG05_4_2_2,Length=0.017000000,Units=km
new line.RBT_11238074 bus1=BBT2171058.1.2.3.0,bus2=RML1011238074.1.2.3.0,Phases=3,Linecode=CABBTG06_4_3_3,Length=0.017000000,Units=km
new line.RBT_11238187 bus1=BBT2445038.1.2.0,bus2=RML1011238187.1.2.0,Phases=2,Linecode=CABBTG05_4_2_2,Length=0.017000000,Units=km
new line.RBT_11296348 bus1=BBT2449602.1.2.3.0,bus2=RML1011296348.1.2.3.0,Phases=3,Linecode=CABBTG06_4_3_3,Length=0.017000000,Units=km
new line.RBT_11296390 bus1=BBT2445038.1.2.3.0,bus2=RML1011296390.1.2.3.0,Phases=3,Linecode=CABBTG06_4_3_3,Length=0.017000000,Units=km
new line.RBT_11356080 bus1=BBT2212148.1.2.0,bus2=RML1011356080.1.2.0,Phases=2,Linecode=CABBTG05_4_2_2,Length=0.017000000,Units=km
new line.RBT_11356083 bus1=BBT109647470.1.2.3.0,bus2=RML1011356083.1.2.3.0,Phases=3,Linecode=CABBTG07_4_3_3,Length=0.017000000,Units=km
new line.RBT_11356683 bus1=BBT2409520.1.2.0,bus2=RML1011356683.1.2.0,Phases=2,Linecode=CABBTG05_4_2_2,Length=0.017000000,Units=km
new line.RBT_4153773 bus1=BBT2210363.3.1.0,bus2=RML1004153773.3.1.0,Phases=2,Linecode=CABBTG05_4_2_2,Length=0.029000000,Units=km
new line.RBT_4153780 bus1=BBT2092742.3.0,bus2=RML1004153780.3.0,Phases=1,Linecode=CABBTG01_4_1_1,Length=0.029000000,Units=km
new line.RBT_4153787 bus1=BBT2092749.1.2.0,bus2=RML1004153787.1.2.0,Phases=2,Linecode=CABBTG05_4_2_2,Length=0.029000000,Units=km
new line.RBT_4153794 bus1=BBT2092749.3.0,bus2=RML1004153794.3.0,Phases=1,Linecode=CABBTG01_4_1_1,Length=0.029000000,Units=km
new line.RBT_4153801 bus1=BBT2092749.2.3.0,bus2=RML1004153801.2.3.0,Phases=2,Linecode=CABBTG05_4_2_2,Length=0.029000000,Units=km
new line.RBT_10120961 bus1=BBT2400686.1.0,bus2=RML1010120961.1.0,Phases=1,Linecode=CABBTG02_4_1_1,Length=0.029000000,Units=km
...